# generated using pymatgen
data_MnNi2H72C114(NO3)6
_symmetry_space_group_name_H-M   'P 1'
_cell_length_a   32.86840000
_cell_length_b   45.22340000
_cell_length_c   46.47730000
_cell_angle_alpha   91.02400000
_cell_angle_beta   89.63300000
_cell_angle_gamma   89.97100000
_symmetry_Int_Tables_number   1
_chemical_formula_structural   MnNi2H72C114(NO3)6
_chemical_formula_sum   'Mn4 Ni8 H288 C456 N24 O72'
_cell_volume   69072.36211641
_cell_formula_units_Z   4
loop_
 _symmetry_equiv_pos_site_id
 _symmetry_equiv_pos_as_xyz
  1  'x, y, z'
loop_
 _atom_site_type_symbol
 _atom_site_label
 _atom_site_symmetry_multiplicity
 _atom_site_fract_x
 _atom_site_fract_y
 _atom_site_fract_z
 _atom_site_occupancy
  Mn  Mn0  1  0.09198000  0.34416000  0.79527000  1.0
  Mn  Mn1  1  0.53597000  0.85145000  0.58814000  1.0
  Mn  Mn2  1  0.04681000  0.76673000  0.08756000  1.0
  Mn  Mn3  1  0.61319000  0.27723000  0.28821000  1.0
  Ni  Ni4  1  0.05034000  0.38422000  0.84552000  1.0
  Ni  Ni5  1  0.12565000  0.30564000  0.74001000  1.0
  Ni  Ni6  1  0.59093000  0.88854000  0.54333000  1.0
  Ni  Ni7  1  0.48693000  0.81437000  0.63682000  1.0
  Ni  Ni8  1  0.00488000  0.80585000  0.13929000  1.0
  Ni  Ni9  1  0.09492000  0.72780000  0.03897000  1.0
  Ni  Ni10  1  0.66281000  0.30925000  0.23613000  1.0
  Ni  Ni11  1  0.55850000  0.24544000  0.33760000  1.0
  H  H12  1  0.45420000  0.52335000  0.51891000  1.0
  H  H13  1  0.39502000  0.48448000  0.59176000  1.0
  H  H14  1  0.37723000  0.44799000  0.50637000  1.0
  H  H15  1  0.46027000  0.48876000  0.42661000  1.0
  H  H16  1  0.41187000  0.47286000  0.41915000  1.0
  H  H17  1  0.51285000  0.56532000  0.58965000  1.0
  H  H18  1  0.46821000  0.57692000  0.60855000  1.0
  H  H19  1  0.33071000  0.39835000  0.60079000  1.0
  H  H20  1  0.28833000  0.41090000  0.58138000  1.0
  H  H21  1  0.43428000  0.44367000  0.46956000  1.0
  H  H22  1  0.45082000  0.56265000  0.54755000  1.0
  H  H23  1  0.33493000  0.46262000  0.59943000  1.0
  H  H24  1  0.19148000  0.97630000  0.88368000  1.0
  H  H25  1  0.29608000  0.96119000  0.82909000  1.0
  H  H26  1  0.22791000  0.04212000  0.82383000  1.0
  H  H27  1  0.15486000  0.08041000  0.90659000  1.0
  H  H28  1  0.11562000  0.06896000  0.88246000  1.0
  H  H29  1  0.27641000  0.90437000  0.92390000  1.0
  H  H30  1  0.25018000  0.88350000  0.89696000  1.0
  H  H31  1  0.35938000  0.02537000  0.76779000  1.0
  H  H32  1  0.31745000  0.02232000  0.74434000  1.0
  H  H33  1  0.20327000  0.07095000  0.86098000  1.0
  H  H34  1  0.22156000  0.94571000  0.91109000  1.0
  H  H35  1  0.31006000  0.97302000  0.78221000  1.0
  H  H36  1  0.90938000  0.62901000  0.80398000  1.0
  H  H37  1  0.89988000  0.70031000  0.74430000  1.0
  H  H38  1  0.82527000  0.70023000  0.82018000  1.0
  H  H39  1  0.82108000  0.62868000  0.89049000  1.0
  H  H40  1  0.79007000  0.66104000  0.89325000  1.0
  H  H41  1  0.00409000  0.62104000  0.72909000  1.0
  H  H42  1  0.96223000  0.60776000  0.70856000  1.0
  H  H43  1  0.85976000  0.78135000  0.72758000  1.0
  H  H44  1  0.82903000  0.78743000  0.75893000  1.0
  H  H45  1  0.84182000  0.68885000  0.86489000  1.0
  H  H46  1  0.93212000  0.60540000  0.76521000  1.0
  H  H47  1  0.84688000  0.72740000  0.72970000  1.0
  H  H48  1  0.70028000  0.16452000  0.55926000  1.0
  H  H49  1  0.77912000  0.21141000  0.61761000  1.0
  H  H50  1  0.66017000  0.18471000  0.64557000  1.0
  H  H51  1  0.56445000  0.13238000  0.59105000  1.0
  H  H52  1  0.55408000  0.14033000  0.62839000  1.0
  H  H53  1  0.81352000  0.17230000  0.51181000  1.0
  H  H54  1  0.82114000  0.21065000  0.51873000  1.0
  H  H55  1  0.75395000  0.23049000  0.71513000  1.0
  H  H56  1  0.73472000  0.26467000  0.70190000  1.0
  H  H57  1  0.62751000  0.14268000  0.63836000  1.0
  H  H58  1  0.73519000  0.19515000  0.52852000  1.0
  H  H59  1  0.76710000  0.24546000  0.65219000  1.0
  H  H60  1  0.73391000  0.58656000  0.38701000  1.0
  H  H61  1  0.81240000  0.61836000  0.32035000  1.0
  H  H62  1  0.71325000  0.67247000  0.35293000  1.0
  H  H63  1  0.64685000  0.63769000  0.44361000  1.0
  H  H64  1  0.61156000  0.64665000  0.41657000  1.0
  H  H65  1  0.81239000  0.51391000  0.38165000  1.0
  H  H66  1  0.82440000  0.51518000  0.34412000  1.0
  H  H67  1  0.80910000  0.71273000  0.27912000  1.0
  H  H68  1  0.77176000  0.69510000  0.25743000  1.0
  H  H69  1  0.69095000  0.67530000  0.40514000  1.0
  H  H70  1  0.74659000  0.54489000  0.36323000  1.0
  H  H71  1  0.80743000  0.64669000  0.28305000  1.0
  H  H72  1  0.91718000  0.12667000  0.98626000  1.0
  H  H73  1  0.86773000  0.15705000  0.06735000  1.0
  H  H74  1  0.89864000  0.06523000  0.05414000  1.0
  H  H75  1  0.99604000  0.03322000  0.98181000  1.0
  H  H76  1  0.94739000  0.02046000  0.97006000  1.0
  H  H77  1  0.90564000  0.23214000  0.99629000  1.0
  H  H78  1  0.87388000  0.21466000  0.97045000  1.0
  H  H79  1  0.85254000  0.10355000  0.15126000  1.0
  H  H80  1  0.80842000  0.08848000  0.13501000  1.0
  H  H81  1  0.95311000  0.04429000  0.03117000  1.0
  H  H82  1  0.93724000  0.17299000  0.98468000  1.0
  H  H83  1  0.82655000  0.13797000  0.10061000  1.0
  H  H84  1  0.18252000  0.43764000  0.08711000  1.0
  H  H85  1  0.25302000  0.47276000  0.15747000  1.0
  H  H86  1  0.31128000  0.42095000  0.09099000  1.0
  H  H87  1  0.26262000  0.35958000  0.03120000  1.0
  H  H88  1  0.31327000  0.37173000  0.02255000  1.0
  H  H89  1  0.10461000  0.48549000  0.15822000  1.0
  H  H90  1  0.08113000  0.48211000  0.12351000  1.0
  H  H91  1  0.35553000  0.46894000  0.20666000  1.0
  H  H92  1  0.38229000  0.47544000  0.17370000  1.0
  H  H93  1  0.30117000  0.41888000  0.04260000  1.0
  H  H94  1  0.14613000  0.47938000  0.09942000  1.0
  H  H95  1  0.30176000  0.44583000  0.18206000  1.0
  H  H96  1  0.42961000  0.97804000  0.31505000  1.0
  H  H97  1  0.35849000  0.90966000  0.27428000  1.0
  H  H98  1  0.47055000  0.93772000  0.23548000  1.0
  H  H99  1  0.56717000  0.99124000  0.23164000  1.0
  H  H100  1  0.56797000  0.99460000  0.27027000  1.0
  H  H101  1  0.31554000  0.93563000  0.36783000  1.0
  H  H102  1  0.33073000  0.97280000  0.37481000  1.0
  H  H103  1  0.38178000  0.84412000  0.20977000  1.0
  H  H104  1  0.38989000  0.86800000  0.18026000  1.0
  H  H105  1  0.49581000  0.98437000  0.23120000  1.0
  H  H106  1  0.40301000  0.95011000  0.35367000  1.0
  H  H107  1  0.34671000  0.90099000  0.22565000  1.0
  H  H108  1  0.20069000  0.45114000  0.96249000  1.0
  H  H109  1  0.16896000  0.45258000  0.91556000  1.0
  H  H110  1  0.23746000  0.42485000  0.99864000  1.0
  H  H111  1  0.29528000  0.34187000  0.97761000  1.0
  H  H112  1  0.20151000  0.34402000  0.84707000  1.0
  H  H113  1  0.14915000  0.42798000  0.87170000  1.0
  H  H114  1  0.27137000  0.34400000  0.92921000  1.0
  H  H115  1  0.24431000  0.34537000  0.88853000  1.0
  H  H116  1  0.43198000  0.99523000  0.44893000  1.0
  H  H117  1  0.46904000  0.98086000  0.49143000  1.0
  H  H118  1  0.38916000  0.98314000  0.40837000  1.0
  H  H119  1  0.33898000  0.89602000  0.39840000  1.0
  H  H120  1  0.44039000  0.85620000  0.52062000  1.0
  H  H121  1  0.49191000  0.94350000  0.52376000  1.0
  H  H122  1  0.37024000  0.88077000  0.44226000  1.0
  H  H123  1  0.39684000  0.86991000  0.48174000  1.0
  H  H124  1  0.67462000  0.70687000  0.52131000  1.0
  H  H125  1  0.65557000  0.75110000  0.54872000  1.0
  H  H126  1  0.66933000  0.67523000  0.47872000  1.0
  H  H127  1  0.58982000  0.69892000  0.40993000  1.0
  H  H128  1  0.53223000  0.82132000  0.48863000  1.0
  H  H129  1  0.61994000  0.79825000  0.55248000  1.0
  H  H130  1  0.56811000  0.74237000  0.43600000  1.0
  H  H131  1  0.54415000  0.77581000  0.46289000  1.0
  H  H132  1  0.04920000  0.25202000  0.97430000  1.0
  H  H133  1  0.09015000  0.28182000  0.94233000  1.0
  H  H134  1  0.98448000  0.22974000  0.98618000  1.0
  H  H135  1  0.89449000  0.21592000  0.92085000  1.0
  H  H136  1  0.00993000  0.29927000  0.83081000  1.0
  H  H137  1  0.09442000  0.31172000  0.89998000  1.0
  H  H138  1  0.93868000  0.23671000  0.88515000  1.0
  H  H139  1  0.97598000  0.26063000  0.85663000  1.0
  H  H140  1  0.92881000  0.61470000  0.95821000  1.0
  H  H141  1  0.97146000  0.63200000  0.99738000  1.0
  H  H142  1  0.87857000  0.62361000  0.92188000  1.0
  H  H143  1  0.81613000  0.70685000  0.91929000  1.0
  H  H144  1  0.93824000  0.75633000  0.02981000  1.0
  H  H145  1  0.99644000  0.67123000  0.02773000  1.0
  H  H146  1  0.85351000  0.72498000  0.96023000  1.0
  H  H147  1  0.88843000  0.73922000  0.99567000  1.0
  H  H148  1  0.71241000  0.14199000  0.43775000  1.0
  H  H149  1  0.67772000  0.15259000  0.39317000  1.0
  H  H150  1  0.75305000  0.15765000  0.47838000  1.0
  H  H151  1  0.80397000  0.24498000  0.48196000  1.0
  H  H152  1  0.71054000  0.27355000  0.35380000  1.0
  H  H153  1  0.65622000  0.18734000  0.35761000  1.0
  H  H154  1  0.77611000  0.25592000  0.43574000  1.0
  H  H155  1  0.75295000  0.26275000  0.39424000  1.0
  H  H156  1  0.56338000  0.40315000  0.44768000  1.0
  H  H157  1  0.59937000  0.36200000  0.42487000  1.0
  H  H158  1  0.50808000  0.43860000  0.44881000  1.0
  H  H159  1  0.42513000  0.44276000  0.37800000  1.0
  H  H160  1  0.53047000  0.32960000  0.31181000  1.0
  H  H161  1  0.60305000  0.32371000  0.38788000  1.0
  H  H162  1  0.46230000  0.40509000  0.35222000  1.0
  H  H163  1  0.49992000  0.37477000  0.32957000  1.0
  H  H164  1  0.23764000  0.87390000  0.01767000  1.0
  H  H165  1  0.19497000  0.84330000  0.04785000  1.0
  H  H166  1  0.25430000  0.89309000  0.97077000  1.0
  H  H167  1  0.16632000  0.89037000  0.90293000  1.0
  H  H168  1  0.04694000  0.80429000  0.98725000  1.0
  H  H169  1  0.13934000  0.80841000  0.05194000  1.0
  H  H170  1  0.11726000  0.86788000  0.93418000  1.0
  H  H171  1  0.07922000  0.84317000  0.96114000  1.0
  H  H172  1  0.11477000  0.12425000  0.78829000  1.0
  H  H173  1  0.10512000  0.17241000  0.76734000  1.0
  H  H174  1  0.12965000  0.09355000  0.82869000  1.0
  H  H175  1  0.15578000  0.13270000  0.91131000  1.0
  H  H176  1  0.12664000  0.26985000  0.85176000  1.0
  H  H177  1  0.10457000  0.22511000  0.77102000  1.0
  H  H178  1  0.14650000  0.18144000  0.89274000  1.0
  H  H179  1  0.13427000  0.22317000  0.87522000  1.0
  H  H180  1  0.59254000  0.65058000  0.56968000  1.0
  H  H181  1  0.59854000  0.70397000  0.56738000  1.0
  H  H182  1  0.55114000  0.60712000  0.57676000  1.0
  H  H183  1  0.42099000  0.61251000  0.57151000  1.0
  H  H184  1  0.43789000  0.76143000  0.56110000  1.0
  H  H185  1  0.56670000  0.75223000  0.57222000  1.0
  H  H186  1  0.42488000  0.66380000  0.55980000  1.0
  H  H187  1  0.43089000  0.70923000  0.55285000  1.0
  H  H188  1  0.67623000  0.04421000  0.61473000  1.0
  H  H189  1  0.67526000  0.99061000  0.61376000  1.0
  H  H190  1  0.64105000  0.09061000  0.61302000  1.0
  H  H191  1  0.51159000  0.09475000  0.62626000  1.0
  H  H192  1  0.50827000  0.94362000  0.61927000  1.0
  H  H193  1  0.63817000  0.94514000  0.60889000  1.0
  H  H194  1  0.50843000  0.04211000  0.63104000  1.0
  H  H195  1  0.50756000  0.99561000  0.63045000  1.0
  H  H196  1  0.10367000  0.54677000  0.74494000  1.0
  H  H197  1  0.12363000  0.49646000  0.75569000  1.0
  H  H198  1  0.05188000  0.58384000  0.73780000  1.0
  H  H199  1  0.92580000  0.55932000  0.73437000  1.0
  H  H200  1  0.98123000  0.41892000  0.77038000  1.0
  H  H201  1  0.10604000  0.44671000  0.77009000  1.0
  H  H202  1  0.94270000  0.50871000  0.74277000  1.0
  H  H203  1  0.95982000  0.46561000  0.75253000  1.0
  H  H204  1  0.07820000  0.94807000  0.99929000  1.0
  H  H205  1  0.08895000  0.89978000  0.02007000  1.0
  H  H206  1  0.03536000  0.99046000  0.99021000  1.0
  H  H207  1  0.91077000  0.99156000  0.01857000  1.0
  H  H208  1  0.94199000  0.85688000  0.07954000  1.0
  H  H209  1  0.06554000  0.85901000  0.04918000  1.0
  H  H210  1  0.91820000  0.94376000  0.03901000  1.0
  H  H211  1  0.92742000  0.90237000  0.05670000  1.0
  H  H212  1  0.70420000  0.48611000  0.28047000  1.0
  H  H213  1  0.66529000  0.44348000  0.26448000  1.0
  H  H214  1  0.75112000  0.50918000  0.31335000  1.0
  H  H215  1  0.78278000  0.46706000  0.39215000  1.0
  H  H216  1  0.67324000  0.34551000  0.34620000  1.0
  H  H217  1  0.64685000  0.39260000  0.26913000  1.0
  H  H218  1  0.73992000  0.42555000  0.38039000  1.0
  H  H219  1  0.70358000  0.38926000  0.36742000  1.0
  H  H220  1  0.45734000  0.08862000  0.26958000  1.0
  H  H221  1  0.46231000  0.14188000  0.27547000  1.0
  H  H222  1  0.48877000  0.04117000  0.26201000  1.0
  H  H223  1  0.61393000  0.03487000  0.23515000  1.0
  H  H224  1  0.62929000  0.18460000  0.25587000  1.0
  H  H225  1  0.50276000  0.18599000  0.27925000  1.0
  H  H226  1  0.61998000  0.08763000  0.23571000  1.0
  H  H227  1  0.62460000  0.13366000  0.24132000  1.0
  H  H228  1  0.19984000  0.58050000  0.12156000  1.0
  H  H229  1  0.19425000  0.63313000  0.11319000  1.0
  H  H230  1  0.16909000  0.53306000  0.12889000  1.0
  H  H231  1  0.03959000  0.52539000  0.13986000  1.0
  H  H232  1  0.02454000  0.67506000  0.12065000  1.0
  H  H233  1  0.15325000  0.67614000  0.10422000  1.0
  H  H234  1  0.03193000  0.57799000  0.13719000  1.0
  H  H235  1  0.02822000  0.62441000  0.13536000  1.0
  H  H236  1  0.16824000  0.44605000  0.62857000  1.0
  H  H237  1  0.12109000  0.43135000  0.66606000  1.0
  H  H238  1  0.23430000  0.44068000  0.60569000  1.0
  H  H239  1  0.33591000  0.40842000  0.65339000  1.0
  H  H240  1  0.20435000  0.36734000  0.75803000  1.0
  H  H241  1  0.10702000  0.39943000  0.70612000  1.0
  H  H242  1  0.29434000  0.40434000  0.69594000  1.0
  H  H243  1  0.25342000  0.39346000  0.72948000  1.0
  H  H244  1  0.47817000  0.96432000  0.75428000  1.0
  H  H245  1  0.51946000  0.93242000  0.72336000  1.0
  H  H246  1  0.41454000  0.98864000  0.76592000  1.0
  H  H247  1  0.31254000  0.98015000  0.70924000  1.0
  H  H248  1  0.43007000  0.89032000  0.62103000  1.0
  H  H249  1  0.52520000  0.89775000  0.68347000  1.0
  H  H250  1  0.35181000  0.94970000  0.67631000  1.0
  H  H251  1  0.39067000  0.92752000  0.64647000  1.0
  H  H252  1  0.68171000  0.75689000  0.75001000  1.0
  H  H253  1  0.61929000  0.76741000  0.72444000  1.0
  H  H254  1  0.75511000  0.75953000  0.75418000  1.0
  H  H255  1  0.82737000  0.79188000  0.68419000  1.0
  H  H256  1  0.65142000  0.82489000  0.61369000  1.0
  H  H257  1  0.58394000  0.78829000  0.68423000  1.0
  H  H258  1  0.76776000  0.80049000  0.65641000  1.0
  H  H259  1  0.71411000  0.81228000  0.63575000  1.0
  H  H260  1  0.90475000  0.22009000  0.67730000  1.0
  H  H261  1  0.97275000  0.23670000  0.68958000  1.0
  H  H262  1  0.83170000  0.22450000  0.68137000  1.0
  H  H263  1  0.77816000  0.29900000  0.72599000  1.0
  H  H264  1  0.97003000  0.34319000  0.76466000  1.0
  H  H265  1  0.01781000  0.26987000  0.71478000  1.0
  H  H266  1  0.84398000  0.31809000  0.73762000  1.0
  H  H267  1  0.90222000  0.33035000  0.75116000  1.0
  H  H268  1  0.95474000  0.68269000  0.26364000  1.0
  H  H269  1  0.00877000  0.69715000  0.23099000  1.0
  H  H270  1  0.88282000  0.68166000  0.27570000  1.0
  H  H271  1  0.79367000  0.68986000  0.20924000  1.0
  H  H272  1  0.94415000  0.73371000  0.11908000  1.0
  H  H273  1  0.02875000  0.72254000  0.18793000  1.0
  H  H274  1  0.84602000  0.69430000  0.17342000  1.0
  H  H275  1  0.89307000  0.70667000  0.14491000  1.0
  H  H276  1  0.68312000  0.15047000  0.13144000  1.0
  H  H277  1  0.63819000  0.18446000  0.15729000  1.0
  H  H278  1  0.74855000  0.12637000  0.12516000  1.0
  H  H279  1  0.84337000  0.14141000  0.18677000  1.0
  H  H280  1  0.71464000  0.23473000  0.26165000  1.0
  H  H281  1  0.62791000  0.22249000  0.19387000  1.0
  H  H282  1  0.79953000  0.17280000  0.21534000  1.0
  H  H283  1  0.75679000  0.19591000  0.24147000  1.0
  H  H284  1  0.49053000  0.41088000  0.14408000  1.0
  H  H285  1  0.54134000  0.37479000  0.15730000  1.0
  H  H286  1  0.43012000  0.43916000  0.15508000  1.0
  H  H287  1  0.35604000  0.41832000  0.22831000  1.0
  H  H288  1  0.49977000  0.31575000  0.26564000  1.0
  H  H289  1  0.56888000  0.34097000  0.19109000  1.0
  H  H290  1  0.40091000  0.37855000  0.24050000  1.0
  H  H291  1  0.44451000  0.34674000  0.25155000  1.0
  H  H292  1  0.29881000  0.83403000  0.10783000  1.0
  H  H293  1  0.23259000  0.81707000  0.09171000  1.0
  H  H294  1  0.34382000  0.85101000  0.14536000  1.0
  H  H295  1  0.30045000  0.86069000  0.23238000  1.0
  H  H296  1  0.10938000  0.82405000  0.18429000  1.0
  H  H297  1  0.16216000  0.80569000  0.10104000  1.0
  H  H298  1  0.23291000  0.84766000  0.21782000  1.0
  H  H299  1  0.17379000  0.84047000  0.20229000  1.0
  C  C300  1  0.41642000  0.48596000  0.50935000  1.0
  C  C301  1  0.43360000  0.50722000  0.52784000  1.0
  C  C302  1  0.42582000  0.50701000  0.55754000  1.0
  C  C303  1  0.40015000  0.48510000  0.56878000  1.0
  C  C304  1  0.38211000  0.46371000  0.55059000  1.0
  C  C305  1  0.39097000  0.46413000  0.52079000  1.0
  C  C306  1  0.42357000  0.48860000  0.47797000  1.0
  C  C307  1  0.44139000  0.46869000  0.42992000  1.0
  C  C308  1  0.44616000  0.52848000  0.57725000  1.0
  C  C309  1  0.48230000  0.57538000  0.58676000  1.0
  C  C310  1  0.35573000  0.43982000  0.56222000  1.0
  C  C311  1  0.31042000  0.41783000  0.59825000  1.0
  C  C312  1  0.20697000  0.01165000  0.85568000  1.0
  C  C313  1  0.21260000  0.98362000  0.86741000  1.0
  C  C314  1  0.24501000  0.96533000  0.85846000  1.0
  C  C315  1  0.27074000  0.97489000  0.83598000  1.0
  C  C316  1  0.26477000  0.00257000  0.82321000  1.0
  C  C317  1  0.23297000  0.02087000  0.83354000  1.0
  C  C318  1  0.17332000  0.03067000  0.86693000  1.0
  C  C319  1  0.14636000  0.07916000  0.88350000  1.0
  C  C320  1  0.25233000  0.93618000  0.87218000  1.0
  C  C321  1  0.24654000  0.90182000  0.91305000  1.0
  C  C322  1  0.29239000  0.01404000  0.80033000  1.0
  C  C323  1  0.33770000  0.00909000  0.75825000  1.0
  C  C324  1  0.86634000  0.66313000  0.81536000  1.0
  C  C325  1  0.89535000  0.64933000  0.79721000  1.0
  C  C326  1  0.90727000  0.66238000  0.77118000  1.0
  C  C327  1  0.88984000  0.68958000  0.76370000  1.0
  C  C328  1  0.86043000  0.70338000  0.78136000  1.0
  C  C329  1  0.84870000  0.68990000  0.80699000  1.0
  C  C330  1  0.85377000  0.64911000  0.84270000  1.0
  C  C331  1  0.82206000  0.65325000  0.89153000  1.0
  C  C332  1  0.93898000  0.64908000  0.75182000  1.0
  C  C333  1  0.97638000  0.60697000  0.73019000  1.0
  C  C334  1  0.84377000  0.73292000  0.77448000  1.0
  C  C335  1  0.83287000  0.77296000  0.73953000  1.0
  C  C336  1  0.67605000  0.17218000  0.60194000  1.0
  C  C337  1  0.70559000  0.17476000  0.58012000  1.0
  C  C338  1  0.74265000  0.18929000  0.58554000  1.0
  C  C339  1  0.75004000  0.20119000  0.61315000  1.0
  C  C340  1  0.72034000  0.19958000  0.63494000  1.0
  C  C341  1  0.68345000  0.18520000  0.62903000  1.0
  C  C342  1  0.63725000  0.15640000  0.59601000  1.0
  C  C343  1  0.57588000  0.12938000  0.61325000  1.0
  C  C344  1  0.77490000  0.19088000  0.56311000  1.0
  C  C345  1  0.79767000  0.19402000  0.51257000  1.0
  C  C346  1  0.72742000  0.21167000  0.66440000  1.0
  C  C347  1  0.75850000  0.24747000  0.69840000  1.0
  C  C348  1  0.71988000  0.62987000  0.37207000  1.0
  C  C349  1  0.74212000  0.60351000  0.37188000  1.0
  C  C350  1  0.77492000  0.59899000  0.35294000  1.0
  C  C351  1  0.78639000  0.62175000  0.33435000  1.0
  C  C352  1  0.76431000  0.64846000  0.33386000  1.0
  C  C353  1  0.73120000  0.65240000  0.35321000  1.0
  C  C354  1  0.68287000  0.63164000  0.39046000  1.0
  C  C355  1  0.63957000  0.65477000  0.42749000  1.0
  C  C356  1  0.79728000  0.57045000  0.35258000  1.0
  C  C357  1  0.79890000  0.51616000  0.35994000  1.0
  C  C358  1  0.77477000  0.67258000  0.31348000  1.0
  C  C359  1  0.80174000  0.69155000  0.26779000  1.0
  C  C360  1  0.91123000  0.09357000  0.01847000  1.0
  C  C361  1  0.90811000  0.12242000  0.00820000  1.0
  C  C362  1  0.89278000  0.14551000  0.02568000  1.0
  C  C363  1  0.87913000  0.13923000  0.05375000  1.0
  C  C364  1  0.88113000  0.11028000  0.06436000  1.0
  C  C365  1  0.89760000  0.08768000  0.04649000  1.0
  C  C366  1  0.92741000  0.06989000  0.99893000  1.0
  C  C367  1  0.96656000  0.02411000  0.98943000  1.0
  C  C368  1  0.88878000  0.17593000  0.01428000  1.0
  C  C369  1  0.90526000  0.21452000  0.97928000  1.0
  C  C370  1  0.86769000  0.10281000  0.09417000  1.0
  C  C371  1  0.82580000  0.10939000  0.13793000  1.0
  C  C372  1  0.24679000  0.42819000  0.08526000  1.0
  C  C373  1  0.21154000  0.44101000  0.09752000  1.0
  C  C374  1  0.21359000  0.45727000  0.12359000  1.0
  C  C375  1  0.25114000  0.46005000  0.13755000  1.0
  C  C376  1  0.28640000  0.44713000  0.12578000  1.0
  C  C377  1  0.28415000  0.43161000  0.09950000  1.0
  C  C378  1  0.24378000  0.40865000  0.05934000  1.0
  C  C379  1  0.28068000  0.37830000  0.02262000  1.0
  C  C380  1  0.17677000  0.47022000  0.13759000  1.0
  C  C381  1  0.10738000  0.49181000  0.13530000  1.0
  C  C382  1  0.32590000  0.45019000  0.14063000  1.0
  C  C383  1  0.36454000  0.45865000  0.18567000  1.0
  C  C384  1  0.45368000  0.96082000  0.27483000  1.0
  C  C385  1  0.42519000  0.96233000  0.29749000  1.0
  C  C386  1  0.39060000  0.94407000  0.29724000  1.0
  C  C387  1  0.38457000  0.92427000  0.27407000  1.0
  C  C388  1  0.41338000  0.92188000  0.25174000  1.0
  C  C389  1  0.44782000  0.94017000  0.25231000  1.0
  C  C390  1  0.49087000  0.97940000  0.27578000  1.0
  C  C391  1  0.55082000  0.00068000  0.25070000  1.0
  C  C392  1  0.36026000  0.94537000  0.32093000  1.0
  C  C393  1  0.34239000  0.94980000  0.37265000  1.0
  C  C394  1  0.40982000  0.89862000  0.22906000  1.0
  C  C395  1  0.36978000  0.86413000  0.19917000  1.0
  C  C396  1  0.13654000  0.38017000  0.83712000  1.0
  C  C397  1  0.06353000  0.33886000  0.85451000  1.0
  C  C398  1  0.05503000  0.40466000  0.78969000  1.0
  C  C399  1  0.04062000  0.31480000  0.75033000  1.0
  C  C400  1  0.12903000  0.35354000  0.73808000  1.0
  C  C401  1  0.11355000  0.27928000  0.79432000  1.0
  C  C402  1  0.50289000  0.88843000  0.54326000  1.0
  C  C403  1  0.57619000  0.84402000  0.53190000  1.0
  C  C404  1  0.57254000  0.91205000  0.59736000  1.0
  C  C405  1  0.57453000  0.81730000  0.63399000  1.0
  C  C406  1  0.49447000  0.86111000  0.64371000  1.0
  C  C407  1  0.50382000  0.78888000  0.58277000  1.0
  C  C408  1  0.09146000  0.80287000  0.13077000  1.0
  C  C409  1  0.01061000  0.75862000  0.14498000  1.0
  C  C410  1  0.01354000  0.82893000  0.08371000  1.0
  C  C411  1  0.00742000  0.72731000  0.04558000  1.0
  C  C412  1  0.08066000  0.77311000  0.02972000  1.0
  C  C413  1  0.08464000  0.70627000  0.09439000  1.0
  C  C414  1  0.57573000  0.31184000  0.24111000  1.0
  C  C415  1  0.65362000  0.26205000  0.23295000  1.0
  C  C416  1  0.65042000  0.33826000  0.28989000  1.0
  C  C417  1  0.64608000  0.24104000  0.33497000  1.0
  C  C418  1  0.57451000  0.29132000  0.34375000  1.0
  C  C419  1  0.57149000  0.21757000  0.28383000  1.0
  C  C420  1  0.23860000  0.38592000  0.93455000  1.0
  C  C421  1  0.23050000  0.40907000  0.95493000  1.0
  C  C422  1  0.24511000  0.40747000  0.98323000  1.0
  C  C423  1  0.26817000  0.38309000  0.99180000  1.0
  C  C424  1  0.27752000  0.36089000  0.97146000  1.0
  C  C425  1  0.26330000  0.36222000  0.94332000  1.0
  C  C426  1  0.21989000  0.38674000  0.90690000  1.0
  C  C427  1  0.22417000  0.36388000  0.88588000  1.0
  C  C428  1  0.19992000  0.36321000  0.86128000  1.0
  C  C429  1  0.17134000  0.38555000  0.85661000  1.0
  C  C430  1  0.17056000  0.41021000  0.87535000  1.0
  C  C431  1  0.19374000  0.41072000  0.90057000  1.0
  C  C432  1  0.20658000  0.43321000  0.94727000  1.0
  C  C433  1  0.18853000  0.43407000  0.92040000  1.0
  C  C434  1  0.39919000  0.92330000  0.45234000  1.0
  C  C435  1  0.40401000  0.95248000  0.44188000  1.0
  C  C436  1  0.38512000  0.96093000  0.41630000  1.0
  C  C437  1  0.36154000  0.94078000  0.40052000  1.0
  C  C438  1  0.35682000  0.91198000  0.41051000  1.0
  C  C439  1  0.37502000  0.90334000  0.43610000  1.0
  C  C440  1  0.42006000  0.91510000  0.47788000  1.0
  C  C441  1  0.41702000  0.88670000  0.49006000  1.0
  C  C442  1  0.44163000  0.87870000  0.51310000  1.0
  C  C443  1  0.46976000  0.89875000  0.52468000  1.0
  C  C444  1  0.47060000  0.92771000  0.51456000  1.0
  C  C445  1  0.44624000  0.93602000  0.49143000  1.0
  C  C446  1  0.42836000  0.97293000  0.45666000  1.0
  C  C447  1  0.44943000  0.96474000  0.48101000  1.0
  C  C448  1  0.60490000  0.73477000  0.47435000  1.0
  C  C449  1  0.63483000  0.71550000  0.48556000  1.0
  C  C450  1  0.64738000  0.69030000  0.46970000  1.0
  C  C451  1  0.63081000  0.68389000  0.44259000  1.0
  C  C452  1  0.60276000  0.70347000  0.43090000  1.0
  C  C453  1  0.58983000  0.72845000  0.44646000  1.0
  C  C454  1  0.59228000  0.75995000  0.49112000  1.0
  C  C455  1  0.56167000  0.77957000  0.48209000  1.0
  C  C456  1  0.55378000  0.80576000  0.49733000  1.0
  C  C457  1  0.57521000  0.81288000  0.52236000  1.0
  C  C458  1  0.60301000  0.79258000  0.53321000  1.0
  C  C459  1  0.61172000  0.76621000  0.51780000  1.0
  C  C460  1  0.65195000  0.72150000  0.51253000  1.0
  C  C461  1  0.64093000  0.74672000  0.52827000  1.0
  C  C462  1  0.98851000  0.24741000  0.91457000  1.0
  C  C463  1  0.00129000  0.24390000  0.94352000  1.0
  C  C464  1  0.97530000  0.23098000  0.96387000  1.0
  C  C465  1  0.93608000  0.22196000  0.95621000  1.0
  C  C466  1  0.92447000  0.22322000  0.92732000  1.0
  C  C467  1  0.95027000  0.23555000  0.90672000  1.0
  C  C468  1  0.01300000  0.26460000  0.89555000  1.0
  C  C469  1  0.00174000  0.27091000  0.86692000  1.0
  C  C470  1  0.02191000  0.29285000  0.85142000  1.0
  C  C471  1  0.05402000  0.30866000  0.86393000  1.0
  C  C472  1  0.06917000  0.29971000  0.89044000  1.0
  C  C473  1  0.04892000  0.27812000  0.90639000  1.0
  C  C474  1  0.03887000  0.25508000  0.95247000  1.0
  C  C475  1  0.06234000  0.27206000  0.93416000  1.0
  C  C476  1  0.88942000  0.68475000  0.96612000  1.0
  C  C477  1  0.89546000  0.65567000  0.95464000  1.0
  C  C478  1  0.87326000  0.64562000  0.93074000  1.0
  C  C479  1  0.84461000  0.66386000  0.91785000  1.0
  C  C480  1  0.83808000  0.69239000  0.92913000  1.0
  C  C481  1  0.85994000  0.70272000  0.95295000  1.0
  C  C482  1  0.91424000  0.69484000  0.98946000  1.0
  C  C483  1  0.91129000  0.72358000  0.00193000  1.0
  C  C484  1  0.93966000  0.73358000  0.02224000  1.0
  C  C485  1  0.97137000  0.71515000  0.03081000  1.0
  C  C486  1  0.97234000  0.68580000  0.02075000  1.0
  C  C487  1  0.94458000  0.67562000  0.00014000  1.0
  C  C488  1  0.92430000  0.63694000  0.96668000  1.0
  C  C489  1  0.94858000  0.64680000  0.98912000  1.0
  C  C490  1  0.74707000  0.21284000  0.42868000  1.0
  C  C491  1  0.74095000  0.18491000  0.44166000  1.0
  C  C492  1  0.75795000  0.17893000  0.46857000  1.0
  C  C493  1  0.78055000  0.20046000  0.48333000  1.0
  C  C494  1  0.78667000  0.22801000  0.47079000  1.0
  C  C495  1  0.77051000  0.23413000  0.44382000  1.0
  C  C496  1  0.72789000  0.21866000  0.40185000  1.0
  C  C497  1  0.73243000  0.24562000  0.38713000  1.0
  C  C498  1  0.70864000  0.25182000  0.36312000  1.0
  C  C499  1  0.67996000  0.23133000  0.35310000  1.0
  C  C500  1  0.67813000  0.20340000  0.36556000  1.0
  C  C501  1  0.70168000  0.19691000  0.38967000  1.0
  C  C502  1  0.71701000  0.16336000  0.42808000  1.0
  C  C503  1  0.69730000  0.16938000  0.40255000  1.0
  C  C504  1  0.50851000  0.39855000  0.38520000  1.0
  C  C505  1  0.52034000  0.40840000  0.41318000  1.0
  C  C506  1  0.49814000  0.43066000  0.42787000  1.0
  C  C507  1  0.46310000  0.44273000  0.41574000  1.0
  C  C508  1  0.45142000  0.43315000  0.38818000  1.0
  C  C509  1  0.47359000  0.41149000  0.37312000  1.0
  C  C510  1  0.53105000  0.37535000  0.37114000  1.0
  C  C511  1  0.52219000  0.36454000  0.34307000  1.0
  C  C512  1  0.54066000  0.33877000  0.33217000  1.0
  C  C513  1  0.56842000  0.32327000  0.34884000  1.0
  C  C514  1  0.58122000  0.33562000  0.37505000  1.0
  C  C515  1  0.56297000  0.36144000  0.38628000  1.0
  C  C516  1  0.55392000  0.39565000  0.42651000  1.0
  C  C517  1  0.57464000  0.37222000  0.41339000  1.0
  C  C518  1  0.15704000  0.86545000  0.97171000  1.0
  C  C519  1  0.19614000  0.87402000  0.98176000  1.0
  C  C520  1  0.22393000  0.88793000  0.96325000  1.0
  C  C521  1  0.21396000  0.89315000  0.93450000  1.0
  C  C522  1  0.17466000  0.88644000  0.92502000  1.0
  C  C523  1  0.14644000  0.87310000  0.94332000  1.0
  C  C524  1  0.13169000  0.84771000  0.98967000  1.0
  C  C525  1  0.09352000  0.83660000  0.98080000  1.0
  C  C526  1  0.07396000  0.81446000  0.99623000  1.0
  C  C527  1  0.09101000  0.80348000  0.02137000  1.0
  C  C528  1  0.12583000  0.81704000  0.03263000  1.0
  C  C529  1  0.14655000  0.83874000  0.01686000  1.0
  C  C530  1  0.20820000  0.86703000  0.00965000  1.0
  C  C531  1  0.18375000  0.84956000  0.02696000  1.0
  C  C532  1  0.13195000  0.16707000  0.84877000  1.0
  C  C533  1  0.12790000  0.14130000  0.83097000  1.0
  C  C534  1  0.13362000  0.11307000  0.84229000  1.0
  C  C535  1  0.14388000  0.10968000  0.87115000  1.0
  C  C536  1  0.14832000  0.13487000  0.88881000  1.0
  C  C537  1  0.14255000  0.16315000  0.87788000  1.0
  C  C538  1  0.12550000  0.19548000  0.83655000  1.0
  C  C539  1  0.12806000  0.22242000  0.85251000  1.0
  C  C540  1  0.12310000  0.24971000  0.83914000  1.0
  C  C541  1  0.11539000  0.25093000  0.80963000  1.0
  C  C542  1  0.11128000  0.22445000  0.79382000  1.0
  C  C543  1  0.11621000  0.19705000  0.80683000  1.0
  C  C544  1  0.11796000  0.14376000  0.80195000  1.0
  C  C545  1  0.11237000  0.17129000  0.79000000  1.0
  C  C546  1  0.49131000  0.66719000  0.56226000  1.0
  C  C547  1  0.52693000  0.65003000  0.56656000  1.0
  C  C548  1  0.52389000  0.61975000  0.57244000  1.0
  C  C549  1  0.48579000  0.60613000  0.57488000  1.0
  C  C550  1  0.45071000  0.62260000  0.56955000  1.0
  C  C551  1  0.45330000  0.65252000  0.56292000  1.0
  C  C552  1  0.49503000  0.69851000  0.55990000  1.0
  C  C553  1  0.46115000  0.71740000  0.55675000  1.0
  C  C554  1  0.46507000  0.74788000  0.56076000  1.0
  C  C555  1  0.50285000  0.76047000  0.56709000  1.0
  C  C556  1  0.53757000  0.74262000  0.56657000  1.0
  C  C557  1  0.53400000  0.71179000  0.56310000  1.0
  C  C558  1  0.56522000  0.66355000  0.56680000  1.0
  C  C559  1  0.56868000  0.69409000  0.56536000  1.0
  C  C560  1  0.57357000  0.03415000  0.62450000  1.0
  C  C561  1  0.61118000  0.04905000  0.62023000  1.0
  C  C562  1  0.61230000  0.07990000  0.61753000  1.0
  C  C563  1  0.57651000  0.09670000  0.61955000  1.0
  C  C564  1  0.53964000  0.08224000  0.62484000  1.0
  C  C565  1  0.53804000  0.05156000  0.62745000  1.0
  C  C566  1  0.57297000  0.00255000  0.62392000  1.0
  C  C567  1  0.53678000  0.98570000  0.62605000  1.0
  C  C568  1  0.53698000  0.95523000  0.62029000  1.0
  C  C569  1  0.57327000  0.94071000  0.61292000  1.0
  C  C570  1  0.60990000  0.95641000  0.61424000  1.0
  C  C571  1  0.61006000  0.98704000  0.61913000  1.0
  C  C572  1  0.64739000  0.03301000  0.61751000  1.0
  C  C573  1  0.64684000  0.00237000  0.61706000  1.0
  C  C574  1  0.00865000  0.51539000  0.74570000  1.0
  C  C575  1  0.03916000  0.53753000  0.74376000  1.0
  C  C576  1  0.02837000  0.56712000  0.73918000  1.0
  C  C577  1  0.98752000  0.57535000  0.73636000  1.0
  C  C578  1  0.95744000  0.55353000  0.73730000  1.0
  C  C579  1  0.96766000  0.52407000  0.74205000  1.0
  C  C580  1  0.02042000  0.48582000  0.75202000  1.0
  C  C581  1  0.99196000  0.46278000  0.75574000  1.0
  C  C582  1  0.00421000  0.43534000  0.76567000  1.0
  C  C583  1  0.04513000  0.42962000  0.77133000  1.0
  C  C584  1  0.07438000  0.45107000  0.76530000  1.0
  C  C585  1  0.06232000  0.47923000  0.75614000  1.0
  C  C586  1  0.08022000  0.53008000  0.74673000  1.0
  C  C587  1  0.09167000  0.50129000  0.75278000  1.0
  C  C588  1  0.98240000  0.93766000  0.02705000  1.0
  C  C589  1  0.01530000  0.95174000  0.01282000  1.0
  C  C590  1  0.01022000  0.97999000  0.00127000  1.0
  C  C591  1  0.97283000  0.99477000  0.00365000  1.0
  C  C592  1  0.94017000  0.98081000  0.01717000  1.0
  C  C593  1  0.94478000  0.95284000  0.02885000  1.0
  C  C594  1  0.98869000  0.90924000  0.03914000  1.0
  C  C595  1  0.95790000  0.89402000  0.05415000  1.0
  C  C596  1  0.96606000  0.86735000  0.06740000  1.0
  C  C597  1  0.00478000  0.85460000  0.06578000  1.0
  C  C598  1  0.03532000  0.86847000  0.04990000  1.0
  C  C599  1  0.02771000  0.89570000  0.03675000  1.0
  C  C600  1  0.05305000  0.93756000  0.01025000  1.0
  C  C601  1  0.05919000  0.90991000  0.02207000  1.0
  C  C602  1  0.71930000  0.44223000  0.33902000  1.0
  C  C603  1  0.72276000  0.46691000  0.32058000  1.0
  C  C604  1  0.74792000  0.49084000  0.32791000  1.0
  C  C605  1  0.76989000  0.49108000  0.35354000  1.0
  C  C606  1  0.76596000  0.46729000  0.37222000  1.0
  C  C607  1  0.74097000  0.44324000  0.36521000  1.0
  C  C608  1  0.69595000  0.41719000  0.32975000  1.0
  C  C609  1  0.69167000  0.39112000  0.34600000  1.0
  C  C610  1  0.67343000  0.36574000  0.33409000  1.0
  C  C611  1  0.65884000  0.36589000  0.30592000  1.0
  C  C612  1  0.65895000  0.39233000  0.29080000  1.0
  C  C613  1  0.67750000  0.41770000  0.30221000  1.0
  C  C614  1  0.70209000  0.46725000  0.29443000  1.0
  C  C615  1  0.67976000  0.44292000  0.28534000  1.0
  C  C616  1  0.55754000  0.09671000  0.24999000  1.0
  C  C617  1  0.52010000  0.08249000  0.25661000  1.0
  C  C618  1  0.51717000  0.05150000  0.25592000  1.0
  C  C619  1  0.55095000  0.03399000  0.24839000  1.0
  C  C620  1  0.58741000  0.04795000  0.24089000  1.0
  C  C621  1  0.59075000  0.07871000  0.24146000  1.0
  C  C622  1  0.56053000  0.12809000  0.25354000  1.0
  C  C623  1  0.59710000  0.14400000  0.24919000  1.0
  C  C624  1  0.59994000  0.17395000  0.25690000  1.0
  C  C625  1  0.56632000  0.18905000  0.26842000  1.0
  C  C626  1  0.52897000  0.17434000  0.27039000  1.0
  C  C627  1  0.52589000  0.14415000  0.26346000  1.0
  C  C628  1  0.48609000  0.09923000  0.26485000  1.0
  C  C629  1  0.48892000  0.12969000  0.26815000  1.0
  C  C630  1  0.09653000  0.58765000  0.13056000  1.0
  C  C631  1  0.13537000  0.57385000  0.12830000  1.0
  C  C632  1  0.13919000  0.54304000  0.13042000  1.0
  C  C633  1  0.10466000  0.52514000  0.13354000  1.0
  C  C634  1  0.06654000  0.53871000  0.13661000  1.0
  C  C635  1  0.06238000  0.56937000  0.13522000  1.0
  C  C636  1  0.09346000  0.61887000  0.12676000  1.0
  C  C637  1  0.05627000  0.63464000  0.12879000  1.0
  C  C638  1  0.05398000  0.66433000  0.12095000  1.0
  C  C639  1  0.08860000  0.67902000  0.11101000  1.0
  C  C640  1  0.12628000  0.66465000  0.11161000  1.0
  C  C641  1  0.12905000  0.63494000  0.11943000  1.0
  C  C642  1  0.17011000  0.59079000  0.12308000  1.0
  C  C643  1  0.16694000  0.62089000  0.11838000  1.0
  C  C644  1  0.23755000  0.41827000  0.67592000  1.0
  C  C645  1  0.22189000  0.43020000  0.65011000  1.0
  C  C646  1  0.24719000  0.43350000  0.62581000  1.0
  C  C647  1  0.28782000  0.42414000  0.62626000  1.0
  C  C648  1  0.30442000  0.41531000  0.65243000  1.0
  C  C649  1  0.27985000  0.41261000  0.67699000  1.0
  C  C650  1  0.20972000  0.41001000  0.69827000  1.0
  C  C651  1  0.22191000  0.39580000  0.72372000  1.0
  C  C652  1  0.19339000  0.38136000  0.74110000  1.0
  C  C653  1  0.15213000  0.38110000  0.73379000  1.0
  C  C654  1  0.13898000  0.39951000  0.71180000  1.0
  C  C655  1  0.16727000  0.41348000  0.69372000  1.0
  C  C656  1  0.18033000  0.43639000  0.64788000  1.0
  C  C657  1  0.15334000  0.42805000  0.66938000  1.0
  C  C658  1  0.40828000  0.95131000  0.70099000  1.0
  C  C659  1  0.42491000  0.96232000  0.72727000  1.0
  C  C660  1  0.40121000  0.97974000  0.74633000  1.0
  C  C661  1  0.36079000  0.98665000  0.73993000  1.0
  C  C662  1  0.34374000  0.97506000  0.71460000  1.0
  C  C663  1  0.36698000  0.95775000  0.69537000  1.0
  C  C664  1  0.43326000  0.93353000  0.68213000  1.0
  C  C665  1  0.41982000  0.92193000  0.65532000  1.0
  C  C666  1  0.44311000  0.90100000  0.63985000  1.0
  C  C667  1  0.48047000  0.89139000  0.65050000  1.0
  C  C668  1  0.49634000  0.90530000  0.67509000  1.0
  C  C669  1  0.47324000  0.92608000  0.69095000  1.0
  C  C670  1  0.46518000  0.95589000  0.73441000  1.0
  C  C671  1  0.48889000  0.93780000  0.71663000  1.0
  C  C672  1  0.72404000  0.78587000  0.68901000  1.0
  C  C673  1  0.72165000  0.77335000  0.71682000  1.0
  C  C674  1  0.75717000  0.76826000  0.73265000  1.0
  C  C675  1  0.79540000  0.77528000  0.72126000  1.0
  C  C676  1  0.79807000  0.78647000  0.69346000  1.0
  C  C677  1  0.76310000  0.79164000  0.67751000  1.0
  C  C678  1  0.68732000  0.79259000  0.67423000  1.0
  C  C679  1  0.68683000  0.80643000  0.64722000  1.0
  C  C680  1  0.65028000  0.81396000  0.63421000  1.0
  C  C681  1  0.61291000  0.80771000  0.64740000  1.0
  C  C682  1  0.61267000  0.79317000  0.67376000  1.0
  C  C683  1  0.64932000  0.78591000  0.68736000  1.0
  C  C684  1  0.68379000  0.76661000  0.72893000  1.0
  C  C685  1  0.64810000  0.77265000  0.71432000  1.0
  C  C686  1  0.87870000  0.28227000  0.71666000  1.0
  C  C687  1  0.87396000  0.25591000  0.69987000  1.0
  C  C688  1  0.83501000  0.24521000  0.69323000  1.0
  C  C689  1  0.80021000  0.26067000  0.70236000  1.0
  C  C690  1  0.80468000  0.28696000  0.71832000  1.0
  C  C691  1  0.84318000  0.29775000  0.72526000  1.0
  C  C692  1  0.91867000  0.29162000  0.72451000  1.0
  C  C693  1  0.92618000  0.31656000  0.74249000  1.0
  C  C694  1  0.96568000  0.32416000  0.75055000  1.0
  C  C695  1  0.99902000  0.30751000  0.74067000  1.0
  C  C696  1  0.99227000  0.28311000  0.72233000  1.0
  C  C697  1  0.95267000  0.27487000  0.71452000  1.0
  C  C698  1  0.90810000  0.24008000  0.69024000  1.0
  C  C699  1  0.94697000  0.24957000  0.69727000  1.0
  C  C700  1  0.89715000  0.69228000  0.20322000  1.0
  C  C701  1  0.90660000  0.68698000  0.23254000  1.0
  C  C702  1  0.87534000  0.68359000  0.25313000  1.0
  C  C703  1  0.83441000  0.68567000  0.24521000  1.0
  C  C704  1  0.82505000  0.68832000  0.21597000  1.0
  C  C705  1  0.85575000  0.69130000  0.19525000  1.0
  C  C706  1  0.92907000  0.70080000  0.18389000  1.0
  C  C707  1  0.92221000  0.70922000  0.15510000  1.0
  C  C708  1  0.95222000  0.72420000  0.13948000  1.0
  C  C709  1  0.98994000  0.73059000  0.15194000  1.0
  C  C710  1  0.99945000  0.71778000  0.17829000  1.0
  C  C711  1  0.96927000  0.70370000  0.19464000  1.0
  C  C712  1  0.94712000  0.68727000  0.24153000  1.0
  C  C713  1  0.97807000  0.69547000  0.22281000  1.0
  C  C714  1  0.74624000  0.16838000  0.18762000  1.0
  C  C715  1  0.73296000  0.15519000  0.16127000  1.0
  C  C716  1  0.75924000  0.13690000  0.14483000  1.0
  C  C717  1  0.79917000  0.13172000  0.15377000  1.0
  C  C718  1  0.81271000  0.14521000  0.17933000  1.0
  C  C719  1  0.78680000  0.16313000  0.19606000  1.0
  C  C720  1  0.71896000  0.18721000  0.20363000  1.0
  C  C721  1  0.72899000  0.20078000  0.23037000  1.0
  C  C722  1  0.70401000  0.22271000  0.24281000  1.0
  C  C723  1  0.66835000  0.23147000  0.22907000  1.0
  C  C724  1  0.65553000  0.21569000  0.20458000  1.0
  C  C725  1  0.68031000  0.19375000  0.19182000  1.0
  C  C726  1  0.69361000  0.16056000  0.15135000  1.0
  C  C727  1  0.66782000  0.17986000  0.16623000  1.0
  C  C728  1  0.44425000  0.38531000  0.20522000  1.0
  C  C729  1  0.45101000  0.40269000  0.18042000  1.0
  C  C730  1  0.42405000  0.42551000  0.17355000  1.0
  C  C731  1  0.39047000  0.43191000  0.19118000  1.0
  C  C732  1  0.38232000  0.41395000  0.21473000  1.0
  C  C733  1  0.40869000  0.39097000  0.22171000  1.0
  C  C734  1  0.47412000  0.36394000  0.21294000  1.0
  C  C735  1  0.47086000  0.34628000  0.23768000  1.0
  C  C736  1  0.50286000  0.32795000  0.24594000  1.0
  C  C737  1  0.53900000  0.32659000  0.22984000  1.0
  C  C738  1  0.54143000  0.34223000  0.20412000  1.0
  C  C739  1  0.50975000  0.36085000  0.19569000  1.0
  C  C740  1  0.48542000  0.39795000  0.16316000  1.0
  C  C741  1  0.51445000  0.37730000  0.17071000  1.0
  C  C742  1  0.24726000  0.84137000  0.17202000  1.0
  C  C743  1  0.28003000  0.84212000  0.15195000  1.0
  C  C744  1  0.31902000  0.85074000  0.16085000  1.0
  C  C745  1  0.32669000  0.85811000  0.18968000  1.0
  C  C746  1  0.29489000  0.85637000  0.20977000  1.0
  C  C747  1  0.25566000  0.84863000  0.20111000  1.0
  C  C748  1  0.20791000  0.83260000  0.16225000  1.0
  C  C749  1  0.17305000  0.83288000  0.18022000  1.0
  C  C750  1  0.13533000  0.82360000  0.16982000  1.0
  C  C751  1  0.13121000  0.81331000  0.14142000  1.0
  C  C752  1  0.16524000  0.81320000  0.12318000  1.0
  C  C753  1  0.20311000  0.82321000  0.13310000  1.0
  C  C754  1  0.27395000  0.83363000  0.12321000  1.0
  C  C755  1  0.23610000  0.82393000  0.11400000  1.0
  N  N756  1  0.43316000  0.46480000  0.46081000  1.0
  N  N757  1  0.45824000  0.55565000  0.56817000  1.0
  N  N758  1  0.33469000  0.44272000  0.58764000  1.0
  N  N759  1  0.17669000  0.06073000  0.86825000  1.0
  N  N760  1  0.23710000  0.92973000  0.89884000  1.0
  N  N761  1  0.31315000  0.99599000  0.78139000  1.0
  N  N762  1  0.84036000  0.66578000  0.86561000  1.0
  N  N763  1  0.94780000  0.61960000  0.75158000  1.0
  N  N764  1  0.84095000  0.74212000  0.74682000  1.0
  N  N765  1  0.61579000  0.14326000  0.61754000  1.0
  N  N766  1  0.76563000  0.19337000  0.53473000  1.0
  N  N767  1  0.75314000  0.23477000  0.66940000  1.0
  N  N768  1  0.67306000  0.65624000  0.40642000  1.0
  N  N769  1  0.77786000  0.54472000  0.35895000  1.0
  N  N770  1  0.79698000  0.66780000  0.28879000  1.0
  N  N771  1  0.94773000  0.04601000  0.00911000  1.0
  N  N772  1  0.91286000  0.18577000  0.99237000  1.0
  N  N773  1  0.83995000  0.11932000  0.10954000  1.0
  N  N774  1  0.27616000  0.40467000  0.04121000  1.0
  N  N775  1  0.14475000  0.48000000  0.12191000  1.0
  N  N776  1  0.32781000  0.45034000  0.16989000  1.0
  N  N777  1  0.50970000  0.98808000  0.25111000  1.0
  N  N778  1  0.37201000  0.94845000  0.34888000  1.0
  N  N779  1  0.37295000  0.88955000  0.21912000  1.0
  O  O780  1  0.42283000  0.51527000  0.46702000  1.0
  O  O781  1  0.45312000  0.52070000  0.60394000  1.0
  O  O782  1  0.35266000  0.41504000  0.54703000  1.0
  O  O783  1  0.14102000  0.01779000  0.87799000  1.0
  O  O784  1  0.27533000  0.91666000  0.85841000  1.0
  O  O785  1  0.29544000  0.04294000  0.79784000  1.0
  O  O786  1  0.85569000  0.62012000  0.84450000  1.0
  O  O787  1  0.95763000  0.66639000  0.73343000  1.0
  O  O788  1  0.83242000  0.75061000  0.79588000  1.0
  O  O789  1  0.62411000  0.15477000  0.56933000  1.0
  O  O790  1  0.81325000  0.19052000  0.57116000  1.0
  O  O791  1  0.70692000  0.20024000  0.68597000  1.0
  O  O792  1  0.66091000  0.60744000  0.39311000  1.0
  O  O793  1  0.83611000  0.57017000  0.34544000  1.0
  O  O794  1  0.76003000  0.69919000  0.31906000  1.0
  O  O795  1  0.92378000  0.07316000  0.97095000  1.0
  O  O796  1  0.86055000  0.19344000  0.02543000  1.0
  O  O797  1  0.88237000  0.07853000  0.10549000  1.0
  O  O798  1  0.21018000  0.39336000  0.05519000  1.0
  O  O799  1  0.17615000  0.47326000  0.16584000  1.0
  O  O800  1  0.35930000  0.45296000  0.12514000  1.0
  O  O801  1  0.50603000  0.98708000  0.30098000  1.0
  O  O802  1  0.32152000  0.94200000  0.31464000  1.0
  O  O803  1  0.44334000  0.88627000  0.21880000  1.0
  O  O804  1  0.04458000  0.33117000  0.77382000  1.0
  O  O805  1  0.07133000  0.30373000  0.73525000  1.0
  O  O806  1  0.12755000  0.33515000  0.71570000  1.0
  O  O807  1  0.12789000  0.33790000  0.76219000  1.0
  O  O808  1  0.12360000  0.27798000  0.76683000  1.0
  O  O809  1  0.10187000  0.30360000  0.80835000  1.0
  O  O810  1  0.13766000  0.35762000  0.81856000  1.0
  O  O811  1  0.10318000  0.39578000  0.84279000  1.0
  O  O812  1  0.06299000  0.36057000  0.87399000  1.0
  O  O813  1  0.05629000  0.34952000  0.82843000  1.0
  O  O814  1  0.03672000  0.40476000  0.81485000  1.0
  O  O815  1  0.08233000  0.38476000  0.78137000  1.0
  O  O816  1  0.57692000  0.83791000  0.61443000  1.0
  O  O817  1  0.54007000  0.80492000  0.64246000  1.0
  O  O818  1  0.49048000  0.84150000  0.66426000  1.0
  O  O819  1  0.49397000  0.84765000  0.61780000  1.0
  O  O820  1  0.48324000  0.78934000  0.60708000  1.0
  O  O821  1  0.52765000  0.81046000  0.57391000  1.0
  O  O822  1  0.49656000  0.86586000  0.56060000  1.0
  O  O823  1  0.53875000  0.90154000  0.53946000  1.0
  O  O824  1  0.58432000  0.86480000  0.51314000  1.0
  O  O825  1  0.57813000  0.85466000  0.55886000  1.0
  O  O826  1  0.59777000  0.90975000  0.57545000  1.0
  O  O827  1  0.54378000  0.89249000  0.60268000  1.0
  O  O828  1  0.00356000  0.75008000  0.06374000  1.0
  O  O829  1  0.04263000  0.71516000  0.03776000  1.0
  O  O830  1  0.08514000  0.75178000  0.01014000  1.0
  O  O831  1  0.08523000  0.76208000  0.05593000  1.0
  O  O832  1  0.10488000  0.70649000  0.06994000  1.0
  O  O833  1  0.05833000  0.72693000  0.10259000  1.0
  O  O834  1  0.09131000  0.78266000  0.11010000  1.0
  O  O835  1  0.05839000  0.81453000  0.14260000  1.0
  O  O836  1  0.01046000  0.77889000  0.16586000  1.0
  O  O837  1  0.00859000  0.77205000  0.11961000  1.0
  O  O838  1  0.99900000  0.83046000  0.11015000  1.0
  O  O839  1  0.03446000  0.80635000  0.07272000  1.0
  O  O840  1  0.65296000  0.26002000  0.31410000  1.0
  O  O841  1  0.60961000  0.23209000  0.34347000  1.0
  O  O842  1  0.56580000  0.27295000  0.36469000  1.0
  O  O843  1  0.57230000  0.27711000  0.31845000  1.0
  O  O844  1  0.55156000  0.22010000  0.30836000  1.0
  O  O845  1  0.59774000  0.23728000  0.27418000  1.0
  O  O846  1  0.57207000  0.29465000  0.26361000  1.0
  O  O847  1  0.61075000  0.31887000  0.22899000  1.0
  O  O848  1  0.65922000  0.27976000  0.21098000  1.0
  O  O849  1  0.65400000  0.27787000  0.25752000  1.0
  O  O850  1  0.66562000  0.33701000  0.26362000  1.0
  O  O851  1  0.62973000  0.31679000  0.30224000  1.0
