# generated using pymatgen
data_MnCu16H156C198Br16N20ClO6
_symmetry_space_group_name_H-M   'P 1'
_cell_length_a   44.18370000
_cell_length_b   52.53740000
_cell_length_c   56.46760000
_cell_angle_alpha   89.99900000
_cell_angle_beta   89.81700000
_cell_angle_gamma   89.80300000
_symmetry_Int_Tables_number   1
_chemical_formula_structural   MnCu16H156C198Br16N20ClO6
_chemical_formula_sum   'Mn2 Cu32 H312 C396 Br32 N40 Cl2 O12'
_cell_volume   131076.61130918
_cell_formula_units_Z   2
loop_
 _symmetry_equiv_pos_site_id
 _symmetry_equiv_pos_as_xyz
  1  'x, y, z'
loop_
 _atom_site_type_symbol
 _atom_site_label
 _atom_site_symmetry_multiplicity
 _atom_site_fract_x
 _atom_site_fract_y
 _atom_site_fract_z
 _atom_site_occupancy
  Mn  Mn0  1  0.99178000  0.50957000  0.99138000  1.0
  Mn  Mn1  1  0.98304000  0.98649000  0.50128000  1.0
  Cu  Cu2  1  0.72899000  0.47510000  0.71611000  1.0
  Cu  Cu3  1  0.71149000  0.51518000  0.73930000  1.0
  Cu  Cu4  1  0.67463000  0.48208000  0.72199000  1.0
  Cu  Cu5  1  0.70536000  0.51687000  0.70011000  1.0
  Cu  Cu6  1  0.68912000  0.70884000  0.43765000  1.0
  Cu  Cu7  1  0.68244000  0.72372000  0.48147000  1.0
  Cu  Cu8  1  0.70556000  0.68111000  0.46987000  1.0
  Cu  Cu9  1  0.64992000  0.69555000  0.46827000  1.0
  Cu  Cu10  1  0.70504000  0.49368000  0.27241000  1.0
  Cu  Cu11  1  0.69644000  0.46712000  0.23382000  1.0
  Cu  Cu12  1  0.65349000  0.48607000  0.25912000  1.0
  Cu  Cu13  1  0.68796000  0.44707000  0.26783000  1.0
  Cu  Cu14  1  0.70592000  0.26613000  0.53092000  1.0
  Cu  Cu15  1  0.70203000  0.25742000  0.48519000  1.0
  Cu  Cu16  1  0.72570000  0.29740000  0.50264000  1.0
  Cu  Cu17  1  0.66933000  0.28472000  0.50095000  1.0
  Cu  Cu18  1  0.28037000  0.49281000  0.70416000  1.0
  Cu  Cu19  1  0.28375000  0.46259000  0.74058000  1.0
  Cu  Cu20  1  0.33012000  0.48386000  0.72122000  1.0
  Cu  Cu21  1  0.29835000  0.44574000  0.70618000  1.0
  Cu  Cu22  1  0.25971000  0.70801000  0.52406000  1.0
  Cu  Cu23  1  0.27521000  0.73218000  0.48572000  1.0
  Cu  Cu24  1  0.26513000  0.68414000  0.48704000  1.0
  Cu  Cu25  1  0.31117000  0.70928000  0.50257000  1.0
  Cu  Cu26  1  0.25765000  0.48453000  0.27128000  1.0
  Cu  Cu27  1  0.27856000  0.51931000  0.24289000  1.0
  Cu  Cu28  1  0.31066000  0.48241000  0.25888000  1.0
  Cu  Cu29  1  0.29202000  0.52284000  0.28081000  1.0
  Cu  Cu30  1  0.27669000  0.26365000  0.44214000  1.0
  Cu  Cu31  1  0.28743000  0.23828000  0.48096000  1.0
  Cu  Cu32  1  0.27703000  0.28613000  0.47982000  1.0
  Cu  Cu33  1  0.32493000  0.26127000  0.46721000  1.0
  H  H34  1  0.10565000  0.49736000  0.97156000  1.0
  H  H35  1  0.95769000  0.49499000  0.07826000  1.0
  H  H36  1  0.00921000  0.47083000  0.07500000  1.0
  H  H37  1  0.09831000  0.47369000  0.01171000  1.0
  H  H38  1  0.03022000  0.53342000  0.90745000  1.0
  H  H39  1  0.97194000  0.53953000  0.90500000  1.0
  H  H40  1  0.88337000  0.54242000  0.97156000  1.0
  H  H41  1  0.88355000  0.53647000  0.01702000  1.0
  H  H42  1  0.08529000  0.96546000  0.46032000  1.0
  H  H43  1  0.96655000  0.07814000  0.53339000  1.0
  H  H44  1  0.02450000  0.07421000  0.52678000  1.0
  H  H45  1  0.09573000  0.00665000  0.48471000  1.0
  H  H46  1  0.99815000  0.89753000  0.46318000  1.0
  H  H47  1  0.95049000  0.89271000  0.49034000  1.0
  H  H48  1  0.87730000  0.95871000  0.53087000  1.0
  H  H49  1  0.87659000  0.00783000  0.53557000  1.0
  H  H50  1  0.70117000  0.44538000  0.67610000  1.0
  H  H51  1  0.78944000  0.46708000  0.69597000  1.0
  H  H52  1  0.81112000  0.44578000  0.66068000  1.0
  H  H53  1  0.77736000  0.42368000  0.63272000  1.0
  H  H54  1  0.75289000  0.48457000  0.76858000  1.0
  H  H55  1  0.73968000  0.51119000  0.84007000  1.0
  H  H56  1  0.70162000  0.54178000  0.82523000  1.0
  H  H57  1  0.68976000  0.54323000  0.78233000  1.0
  H  H58  1  0.66795000  0.48908000  0.77335000  1.0
  H  H59  1  0.62565000  0.49576000  0.80151000  1.0
  H  H60  1  0.57332000  0.49778000  0.78672000  1.0
  H  H61  1  0.60751000  0.48847000  0.71564000  1.0
  H  H62  1  0.68853000  0.56041000  0.66765000  1.0
  H  H63  1  0.75205000  0.55396000  0.60977000  1.0
  H  H64  1  0.77478000  0.51682000  0.62927000  1.0
  H  H65  1  0.75451000  0.50219000  0.66749000  1.0
  H  H66  1  0.69310000  0.65755000  0.41466000  1.0
  H  H67  1  0.64649000  0.72626000  0.40107000  1.0
  H  H68  1  0.62271000  0.70787000  0.36559000  1.0
  H  H69  1  0.63473000  0.66415000  0.35369000  1.0
  H  H70  1  0.72197000  0.75951000  0.45681000  1.0
  H  H71  1  0.77517000  0.79491000  0.51162000  1.0
  H  H72  1  0.74867000  0.76876000  0.54106000  1.0
  H  H73  1  0.70896000  0.73853000  0.52823000  1.0
  H  H74  1  0.75835000  0.70688000  0.49093000  1.0
  H  H75  1  0.78669000  0.70386000  0.52856000  1.0
  H  H76  1  0.77113000  0.67261000  0.55884000  1.0
  H  H77  1  0.69814000  0.64938000  0.51336000  1.0
  H  H78  1  0.58849000  0.71391000  0.48155000  1.0
  H  H79  1  0.52873000  0.68003000  0.43043000  1.0
  H  H80  1  0.57293000  0.65941000  0.41153000  1.0
  H  H81  1  0.62379000  0.66567000  0.42832000  1.0
  H  H82  1  0.68579000  0.52893000  0.31083000  1.0
  H  H83  1  0.73610000  0.46050000  0.30824000  1.0
  H  H84  1  0.74378000  0.46175000  0.35149000  1.0
  H  H85  1  0.72371000  0.49793000  0.37472000  1.0
  H  H86  1  0.72597000  0.44483000  0.19195000  1.0
  H  H87  1  0.74089000  0.50762000  0.14413000  1.0
  H  H88  1  0.71740000  0.53628000  0.17347000  1.0
  H  H89  1  0.69842000  0.51889000  0.21146000  1.0
  H  H90  1  0.64888000  0.49452000  0.20741000  1.0
  H  H91  1  0.60780000  0.49455000  0.17772000  1.0
  H  H92  1  0.55554000  0.48451000  0.19017000  1.0
  H  H93  1  0.58728000  0.47505000  0.26169000  1.0
  H  H94  1  0.68611000  0.43137000  0.32015000  1.0
  H  H95  1  0.74302000  0.36479000  0.32239000  1.0
  H  H96  1  0.75031000  0.36812000  0.27922000  1.0
  H  H97  1  0.72630000  0.40340000  0.25723000  1.0
  H  H98  1  0.71130000  0.31260000  0.56182000  1.0
  H  H99  1  0.65652000  0.24680000  0.56126000  1.0
  H  H100  1  0.62806000  0.26197000  0.59603000  1.0
  H  H101  1  0.64154000  0.30253000  0.61470000  1.0
  H  H102  1  0.71975000  0.20356000  0.49395000  1.0
  H  H103  1  0.78823000  0.18697000  0.44172000  1.0
  H  H104  1  0.78445000  0.23139000  0.42768000  1.0
  H  H105  1  0.74706000  0.26064000  0.44597000  1.0
  H  H106  1  0.78950000  0.28904000  0.48681000  1.0
  H  H107  1  0.81899000  0.29869000  0.45064000  1.0
  H  H108  1  0.79452000  0.32058000  0.41723000  1.0
  H  H109  1  0.71120000  0.32227000  0.45719000  1.0
  H  H110  1  0.60729000  0.26762000  0.48767000  1.0
  H  H111  1  0.54882000  0.30023000  0.54110000  1.0
  H  H112  1  0.59342000  0.31955000  0.55974000  1.0
  H  H113  1  0.64373000  0.31342000  0.54196000  1.0
  H  H114  1  0.28974000  0.53710000  0.67256000  1.0
  H  H115  1  0.26259000  0.46111000  0.66245000  1.0
  H  H116  1  0.25783000  0.46795000  0.61935000  1.0
  H  H117  1  0.26723000  0.51070000  0.60269000  1.0
  H  H118  1  0.23779000  0.44132000  0.77222000  1.0
  H  H119  1  0.22608000  0.49665000  0.82805000  1.0
  H  H120  1  0.26447000  0.52340000  0.80878000  1.0
  H  H121  1  0.28908000  0.50889000  0.77164000  1.0
  H  H122  1  0.32575000  0.47002000  0.77189000  1.0
  H  H123  1  0.36093000  0.46756000  0.80567000  1.0
  H  H124  1  0.41473000  0.47673000  0.79978000  1.0
  H  H125  1  0.39680000  0.48967000  0.72550000  1.0
  H  H126  1  0.31143000  0.43381000  0.65410000  1.0
  H  H127  1  0.25496000  0.36924000  0.63948000  1.0
  H  H128  1  0.23915000  0.36876000  0.68141000  1.0
  H  H129  1  0.25854000  0.40149000  0.70882000  1.0
  H  H130  1  0.27681000  0.65548000  0.54227000  1.0
  H  H131  1  0.26285000  0.72853000  0.57164000  1.0
  H  H132  1  0.27653000  0.71286000  0.61148000  1.0
  H  H133  1  0.29036000  0.66785000  0.61700000  1.0
  H  H134  1  0.21848000  0.75264000  0.50423000  1.0
  H  H135  1  0.17646000  0.79110000  0.44531000  1.0
  H  H136  1  0.22025000  0.77941000  0.42057000  1.0
  H  H137  1  0.26251000  0.75445000  0.43787000  1.0
  H  H138  1  0.21705000  0.70735000  0.45898000  1.0
  H  H139  1  0.20213000  0.70847000  0.41686000  1.0
  H  H140  1  0.23126000  0.68403000  0.38748000  1.0
  H  H141  1  0.29008000  0.65809000  0.44355000  1.0
  H  H142  1  0.37726000  0.70630000  0.49268000  1.0
  H  H143  1  0.41930000  0.70971000  0.56152000  1.0
  H  H144  1  0.36879000  0.71347000  0.57955000  1.0
  H  H145  1  0.32365000  0.71361000  0.55417000  1.0
  H  H146  1  0.28693000  0.44872000  0.30551000  1.0
  H  H147  1  0.20667000  0.49256000  0.30450000  1.0
  H  H148  1  0.19358000  0.47849000  0.34502000  1.0
  H  H149  1  0.22724000  0.44862000  0.36602000  1.0
  H  H150  1  0.22108000  0.50369000  0.22139000  1.0
  H  H151  1  0.23202000  0.51531000  0.14630000  1.0
  H  H152  1  0.28469000  0.52835000  0.15345000  1.0
  H  H153  1  0.30451000  0.52995000  0.19448000  1.0
  H  H154  1  0.30984000  0.47655000  0.20725000  1.0
  H  H155  1  0.34777000  0.47581000  0.17492000  1.0
  H  H156  1  0.40170000  0.48094000  0.18411000  1.0
  H  H157  1  0.37799000  0.48980000  0.25789000  1.0
  H  H158  1  0.32945000  0.55958000  0.30825000  1.0
  H  H159  1  0.27964000  0.57263000  0.37290000  1.0
  H  H160  1  0.23876000  0.54540000  0.35761000  1.0
  H  H161  1  0.24399000  0.52562000  0.31835000  1.0
  H  H162  1  0.28131000  0.31847000  0.43131000  1.0
  H  H163  1  0.30141000  0.25064000  0.39440000  1.0
  H  H164  1  0.31820000  0.27517000  0.35932000  1.0
  H  H165  1  0.31568000  0.32210000  0.35998000  1.0
  H  H166  1  0.23090000  0.22051000  0.45975000  1.0
  H  H167  1  0.18255000  0.18409000  0.51690000  1.0
  H  H168  1  0.22543000  0.19303000  0.54315000  1.0
  H  H169  1  0.27030000  0.21584000  0.52756000  1.0
  H  H170  1  0.22780000  0.26346000  0.50811000  1.0
  H  H171  1  0.20898000  0.26742000  0.54923000  1.0
  H  H172  1  0.23344000  0.29724000  0.57663000  1.0
  H  H173  1  0.29778000  0.31577000  0.52163000  1.0
  H  H174  1  0.38704000  0.26910000  0.48420000  1.0
  H  H175  1  0.44435000  0.26061000  0.42283000  1.0
  H  H176  1  0.39887000  0.25227000  0.39874000  1.0
  H  H177  1  0.34860000  0.25223000  0.41777000  1.0
  H  H178  1  0.68219000  0.58795000  0.63310000  1.0
  H  H179  1  0.72004000  0.59957000  0.62893000  1.0
  H  H180  1  0.66328000  0.61329000  0.58394000  1.0
  H  H181  1  0.75634000  0.58917000  0.58595000  1.0
  H  H182  1  0.67694000  0.64794000  0.55652000  1.0
  H  H183  1  0.77029000  0.62371000  0.55913000  1.0
  H  H184  1  0.66752000  0.53742000  0.36023000  1.0
  H  H185  1  0.70342000  0.54041000  0.37558000  1.0
  H  H186  1  0.64337000  0.58082000  0.34455000  1.0
  H  H187  1  0.73373000  0.59077000  0.37070000  1.0
  H  H188  1  0.62813000  0.62140000  0.36220000  1.0
  H  H189  1  0.71959000  0.63224000  0.38727000  1.0
  H  H190  1  0.73346000  0.39699000  0.35872000  1.0
  H  H191  1  0.69741000  0.41293000  0.35795000  1.0
  H  H192  1  0.68437000  0.38363000  0.40268000  1.0
  H  H193  1  0.73303000  0.33576000  0.35391000  1.0
  H  H194  1  0.70882000  0.36203000  0.43614000  1.0
  H  H195  1  0.75731000  0.31368000  0.38696000  1.0
  H  H196  1  0.69357000  0.42735000  0.63511000  1.0
  H  H197  1  0.72642000  0.41651000  0.61839000  1.0
  H  H198  1  0.65623000  0.38327000  0.63448000  1.0
  H  H199  1  0.74978000  0.36392000  0.62352000  1.0
  H  H200  1  0.64096000  0.34785000  0.60893000  1.0
  H  H201  1  0.73503000  0.32795000  0.59840000  1.0
  H  H202  1  0.27261000  0.40070000  0.60699000  1.0
  H  H203  1  0.30286000  0.42175000  0.61368000  1.0
  H  H204  1  0.31289000  0.38775000  0.56610000  1.0
  H  H205  1  0.29672000  0.33904000  0.62587000  1.0
  H  H206  1  0.29165000  0.35565000  0.53955000  1.0
  H  H207  1  0.27647000  0.30616000  0.59961000  1.0
  H  H208  1  0.25836000  0.56068000  0.62440000  1.0
  H  H209  1  0.29285000  0.56636000  0.64086000  1.0
  H  H210  1  0.25830000  0.57268000  0.57539000  1.0
  H  H211  1  0.33678000  0.59180000  0.61642000  1.0
  H  H212  1  0.25247000  0.61751000  0.56366000  1.0
  H  H213  1  0.33123000  0.63667000  0.60497000  1.0
  H  H214  1  0.35437000  0.57914000  0.34282000  1.0
  H  H215  1  0.33520000  0.58294000  0.37030000  1.0
  H  H216  1  0.26850000  0.61797000  0.34533000  1.0
  H  H217  1  0.35194000  0.63455000  0.38091000  1.0
  H  H218  1  0.24035000  0.64189000  0.37535000  1.0
  H  H219  1  0.32434000  0.65963000  0.41068000  1.0
  H  H220  1  0.27148000  0.35533000  0.38751000  1.0
  H  H221  1  0.29218000  0.35960000  0.41454000  1.0
  H  H222  1  0.30382000  0.36602000  0.33911000  1.0
  H  H223  1  0.30742000  0.41068000  0.40283000  1.0
  H  H224  1  0.27904000  0.40147000  0.31834000  1.0
  H  H225  1  0.28210000  0.44618000  0.38242000  1.0
  H  H226  1  0.90528000  0.56024000  0.94195000  1.0
  H  H227  1  0.93566000  0.56269000  0.92329000  1.0
  H  H228  1  0.92558000  0.54941000  0.88408000  1.0
  H  H229  1  0.89174000  0.53021000  0.85540000  1.0
  H  H230  1  0.84278000  0.49376000  0.91232000  1.0
  H  H231  1  0.87795000  0.51176000  0.94077000  1.0
  H  H232  1  0.75971000  0.46007000  0.82163000  1.0
  H  H233  1  0.78551000  0.46825000  0.79861000  1.0
  H  H234  1  0.80456000  0.52139000  0.81382000  1.0
  H  H235  1  0.84220000  0.53591000  0.84216000  1.0
  H  H236  1  0.83249000  0.46565000  0.88121000  1.0
  H  H237  1  0.79365000  0.45194000  0.85351000  1.0
  H  H238  1  0.93878000  0.90680000  0.53601000  1.0
  H  H239  1  0.90746000  0.92542000  0.54365000  1.0
  H  H240  1  0.87538000  0.92933000  0.49485000  1.0
  H  H241  1  0.83892000  0.90004000  0.47711000  1.0
  H  H242  1  0.87972000  0.83760000  0.51529000  1.0
  H  H243  1  0.91612000  0.86666000  0.53258000  1.0
  H  H244  1  0.77542000  0.78158000  0.44901000  1.0
  H  H245  1  0.74708000  0.80543000  0.45241000  1.0
  H  H246  1  0.75713000  0.84434000  0.47669000  1.0
  H  H247  1  0.79542000  0.87457000  0.49019000  1.0
  H  H248  1  0.86489000  0.81783000  0.47864000  1.0
  H  H249  1  0.82640000  0.78762000  0.46571000  1.0
  H  H250  1  0.94095000  0.54041000  0.06770000  1.0
  H  H251  1  0.91198000  0.54992000  0.04893000  1.0
  H  H252  1  0.91083000  0.53619000  0.10218000  1.0
  H  H253  1  0.87014000  0.51645000  0.12457000  1.0
  H  H254  1  0.84340000  0.47459000  0.06232000  1.0
  H  H255  1  0.88417000  0.49465000  0.03980000  1.0
  H  H256  1  0.75675000  0.43767000  0.15741000  1.0
  H  H257  1  0.73126000  0.44992000  0.13565000  1.0
  H  H258  1  0.80768000  0.46196000  0.16364000  1.0
  H  H259  1  0.85158000  0.47726000  0.14131000  1.0
  H  H260  1  0.79516000  0.48778000  0.07975000  1.0
  H  H261  1  0.75161000  0.47203000  0.10205000  1.0
  H  H262  1  0.89815000  0.04034000  0.55055000  1.0
  H  H263  1  0.92884000  0.05974000  0.55306000  1.0
  H  H264  1  0.87480000  0.04124000  0.50308000  1.0
  H  H265  1  0.84023000  0.07171000  0.48492000  1.0
  H  H266  1  0.88272000  0.13268000  0.52366000  1.0
  H  H267  1  0.91669000  0.10202000  0.54224000  1.0
  H  H268  1  0.73794000  0.16148000  0.49163000  1.0
  H  H269  1  0.74237000  0.15374000  0.46096000  1.0
  H  H270  1  0.78790000  0.13299000  0.44767000  1.0
  H  H271  1  0.83214000  0.10778000  0.45904000  1.0
  H  H272  1  0.82969000  0.14207000  0.52853000  1.0
  H  H273  1  0.78587000  0.16752000  0.51684000  1.0
  H  H274  1  0.06953000  0.55066000  0.93481000  1.0
  H  H275  1  0.09570000  0.53504000  0.95254000  1.0
  H  H276  1  0.09575000  0.55134000  0.89845000  1.0
  H  H277  1  0.12444000  0.53097000  0.86678000  1.0
  H  H278  1  0.11713000  0.45885000  0.90282000  1.0
  H  H279  1  0.08792000  0.47916000  0.93438000  1.0
  H  H280  1  0.19090000  0.44111000  0.79770000  1.0
  H  H281  1  0.21734000  0.43266000  0.82008000  1.0
  H  H282  1  0.20612000  0.44354000  0.86056000  1.0
  H  H283  1  0.17143000  0.46160000  0.88995000  1.0
  H  H284  1  0.12195000  0.49930000  0.83419000  1.0
  H  H285  1  0.15689000  0.48118000  0.80482000  1.0
  H  H286  1  0.02236000  0.92533000  0.43337000  1.0
  H  H287  1  0.05427000  0.94450000  0.43474000  1.0
  H  H288  1  0.07023000  0.92411000  0.48899000  1.0
  H  H289  1  0.10114000  0.88760000  0.50022000  1.0
  H  H290  1  0.08459000  0.85322000  0.43209000  1.0
  H  H291  1  0.05340000  0.88958000  0.42095000  1.0
  H  H292  1  0.15317000  0.76204000  0.49398000  1.0
  H  H293  1  0.17629000  0.78217000  0.51172000  1.0
  H  H294  1  0.18047000  0.82964000  0.50083000  1.0
  H  H295  1  0.14992000  0.86688000  0.48997000  1.0
  H  H296  1  0.08287000  0.81726000  0.45936000  1.0
  H  H297  1  0.11365000  0.78031000  0.46992000  1.0
  H  H298  1  0.04062000  0.44512000  0.05483000  1.0
  H  H299  1  0.06581000  0.44274000  0.03126000  1.0
  H  H300  1  0.05356000  0.49924000  0.07354000  1.0
  H  H301  1  0.09000000  0.51137000  0.10351000  1.0
  H  H302  1  0.15059000  0.45214000  0.07923000  1.0
  H  H303  1  0.11322000  0.43910000  0.05012000  1.0
  H  H304  1  0.18463000  0.48427000  0.19200000  1.0
  H  H305  1  0.17579000  0.51712000  0.18976000  1.0
  H  H306  1  0.16519000  0.53689000  0.15049000  1.0
  H  H307  1  0.13735000  0.52904000  0.11386000  1.0
  H  H308  1  0.15636000  0.44863000  0.12047000  1.0
  H  H309  1  0.18495000  0.45685000  0.15647000  1.0
  H  H310  1  0.06436000  0.03922000  0.54061000  1.0
  H  H311  1  0.08950000  0.02344000  0.52171000  1.0
  H  H312  1  0.08407000  0.04940000  0.47488000  1.0
  H  H313  1  0.10845000  0.08818000  0.46045000  1.0
  H  H314  1  0.10613000  0.11931000  0.53111000  1.0
  H  H315  1  0.08257000  0.08049000  0.54561000  1.0
  H  H316  1  0.16293000  0.21400000  0.46936000  1.0
  H  H317  1  0.18647000  0.19513000  0.45042000  1.0
  H  H318  1  0.18984000  0.14705000  0.45744000  1.0
  H  H319  1  0.16070000  0.10899000  0.46795000  1.0
  H  H320  1  0.09473000  0.15624000  0.50358000  1.0
  H  H321  1  0.12380000  0.19413000  0.49298000  1.0
  H  H322  1  0.55365000  0.50031000  0.72176000  1.0
  H  H323  1  0.54682000  0.47338000  0.74076000  1.0
  H  H324  1  0.51260000  0.47376000  0.78197000  1.0
  H  H325  1  0.49153000  0.52761000  0.72719000  1.0
  H  H326  1  0.45941000  0.46165000  0.78463000  1.0
  H  H327  1  0.43766000  0.51711000  0.73061000  1.0
  H  H328  1  0.53479000  0.72871000  0.47781000  1.0
  H  H329  1  0.50972000  0.71267000  0.45713000  1.0
  H  H330  1  0.50541000  0.72634000  0.52176000  1.0
  H  H331  1  0.47101000  0.67094000  0.47287000  1.0
  H  H332  1  0.45426000  0.73336000  0.53746000  1.0
  H  H333  1  0.41974000  0.67710000  0.48875000  1.0
  H  H334  1  0.52426000  0.46222000  0.21937000  1.0
  H  H335  1  0.53667000  0.45822000  0.24962000  1.0
  H  H336  1  0.49290000  0.51268000  0.20465000  1.0
  H  H337  1  0.47919000  0.47199000  0.26975000  1.0
  H  H338  1  0.43871000  0.51021000  0.19606000  1.0
  H  H339  1  0.42501000  0.46825000  0.26107000  1.0
  H  H340  1  0.45768000  0.28781000  0.46254000  1.0
  H  H341  1  0.44014000  0.27439000  0.48890000  1.0
  H  H342  1  0.51418000  0.26805000  0.44674000  1.0
  H  H343  1  0.47966000  0.24421000  0.51441000  1.0
  H  H344  1  0.56134000  0.28216000  0.46550000  1.0
  H  H345  1  0.52667000  0.25801000  0.53348000  1.0
  C  C346  1  0.99833000  0.48080000  0.06060000  1.0
  C  C347  1  0.00894000  0.48453000  0.03771000  1.0
  C  C348  1  0.98384000  0.53314000  0.92057000  1.0
  C  C349  1  0.97215000  0.52781000  0.94287000  1.0
  C  C350  1  0.94187000  0.53300000  0.94985000  1.0
  C  C351  1  0.93125000  0.52884000  0.97333000  1.0
  C  C352  1  0.05026000  0.48560000  0.00805000  1.0
  C  C353  1  0.08051000  0.48306000  0.00192000  1.0
  C  C354  1  0.90255000  0.53546000  0.98144000  1.0
  C  C355  1  0.03757000  0.47633000  0.02933000  1.0
  C  C356  1  0.94023000  0.51911000  0.03508000  1.0
  C  C357  1  0.93084000  0.52349000  0.01157000  1.0
  C  C358  1  0.90253000  0.53249000  0.00546000  1.0
  C  C359  1  0.05048000  0.51849000  0.95332000  1.0
  C  C360  1  0.05631000  0.50510000  0.97447000  1.0
  C  C361  1  0.08444000  0.49580000  0.98102000  1.0
  C  C362  1  0.97154000  0.49381000  0.06249000  1.0
  C  C363  1  0.96590000  0.50437000  0.04051000  1.0
  C  C364  1  0.01450000  0.53007000  0.92180000  1.0
  C  C365  1  0.02090000  0.52222000  0.94460000  1.0
  C  C366  1  0.00834000  0.05941000  0.52304000  1.0
  C  C367  1  0.01378000  0.03532000  0.51416000  1.0
  C  C368  1  0.96319000  0.91003000  0.48796000  1.0
  C  C369  1  0.95782000  0.93367000  0.49800000  1.0
  C  C370  1  0.93374000  0.93940000  0.51348000  1.0
  C  C371  1  0.92391000  0.96464000  0.51745000  1.0
  C  C372  1  0.04709000  0.00394000  0.49444000  1.0
  C  C373  1  0.07412000  0.99718000  0.48361000  1.0
  C  C374  1  0.89592000  0.97120000  0.52656000  1.0
  C  C375  1  0.04283000  0.02536000  0.50912000  1.0
  C  C376  1  0.93487000  0.03100000  0.52548000  1.0
  C  C377  1  0.92402000  0.00584000  0.52190000  1.0
  C  C378  1  0.89567000  0.99712000  0.52889000  1.0
  C  C379  1  0.02450000  0.94726000  0.46564000  1.0
  C  C380  1  0.03841000  0.96961000  0.47416000  1.0
  C  C381  1  0.06850000  0.97585000  0.47041000  1.0
  C  C382  1  0.97775000  0.06145000  0.52639000  1.0
  C  C383  1  0.96520000  0.03813000  0.52041000  1.0
  C  C384  1  0.98791000  0.91267000  0.47342000  1.0
  C  C385  1  0.99767000  0.93759000  0.47577000  1.0
  C  C386  1  0.61106000  0.49065000  0.73445000  1.0
  C  C387  1  0.70745000  0.55118000  0.65899000  1.0
  C  C388  1  0.71828000  0.56025000  0.63706000  1.0
  C  C389  1  0.74290000  0.54766000  0.62650000  1.0
  C  C390  1  0.75590000  0.52663000  0.63744000  1.0
  C  C391  1  0.74440000  0.51834000  0.65902000  1.0
  C  C392  1  0.72506000  0.44593000  0.67206000  1.0
  C  C393  1  0.73647000  0.43328000  0.65199000  1.0
  C  C394  1  0.76775000  0.43352000  0.64784000  1.0
  C  C395  1  0.78692000  0.44584000  0.66361000  1.0
  C  C396  1  0.77466000  0.45786000  0.68345000  1.0
  C  C397  1  0.74216000  0.49710000  0.78129000  1.0
  C  C398  1  0.75006000  0.49585000  0.80539000  1.0
  C  C399  1  0.73486000  0.51198000  0.82131000  1.0
  C  C400  1  0.71321000  0.52920000  0.81303000  1.0
  C  C401  1  0.70651000  0.52999000  0.78890000  1.0
  C  C402  1  0.64516000  0.49108000  0.76683000  1.0
  C  C403  1  0.62131000  0.49455000  0.78271000  1.0
  C  C404  1  0.59176000  0.49578000  0.77420000  1.0
  C  C405  1  0.58617000  0.49396000  0.74980000  1.0
  C  C406  1  0.71740000  0.66131000  0.51713000  1.0
  C  C407  1  0.58469000  0.70216000  0.46615000  1.0
  C  C408  1  0.55528000  0.69877000  0.45740000  1.0
  C  C409  1  0.55114000  0.68328000  0.43748000  1.0
  C  C410  1  0.57596000  0.67151000  0.42682000  1.0
  C  C411  1  0.60470000  0.67517000  0.43627000  1.0
  C  C412  1  0.67763000  0.66812000  0.40360000  1.0
  C  C413  1  0.66472000  0.65682000  0.38339000  1.0
  C  C414  1  0.64466000  0.67156000  0.36975000  1.0
  C  C415  1  0.63791000  0.69649000  0.37623000  1.0
  C  C416  1  0.65128000  0.70677000  0.39629000  1.0
  C  C417  1  0.72813000  0.76195000  0.47519000  1.0
  C  C418  1  0.75055000  0.77955000  0.48150000  1.0
  C  C419  1  0.75799000  0.78184000  0.50563000  1.0
  C  C420  1  0.74302000  0.76705000  0.52252000  1.0
  C  C421  1  0.72066000  0.75007000  0.51530000  1.0
  C  C422  1  0.75131000  0.69349000  0.50436000  1.0
  C  C423  1  0.76733000  0.69176000  0.52551000  1.0
  C  C424  1  0.75840000  0.67411000  0.54256000  1.0
  C  C425  1  0.73323000  0.65851000  0.53852000  1.0
  C  C426  1  0.59138000  0.47909000  0.24319000  1.0
  C  C427  1  0.69988000  0.41721000  0.31136000  1.0
  C  C428  1  0.71357000  0.39766000  0.32461000  1.0
  C  C429  1  0.73183000  0.37988000  0.31277000  1.0
  C  C430  1  0.73615000  0.38175000  0.28841000  1.0
  C  C431  1  0.72247000  0.40160000  0.27604000  1.0
  C  C432  1  0.69832000  0.51431000  0.31996000  1.0
  C  C433  1  0.70347000  0.51650000  0.34442000  1.0
  C  C434  1  0.71959000  0.49709000  0.35586000  1.0
  C  C435  1  0.73099000  0.47664000  0.34283000  1.0
  C  C436  1  0.72633000  0.47582000  0.31842000  1.0
  C  C437  1  0.72437000  0.46481000  0.18750000  1.0
  C  C438  1  0.73610000  0.47383000  0.16588000  1.0
  C  C439  1  0.73299000  0.49987000  0.16077000  1.0
  C  C440  1  0.71951000  0.51618000  0.17724000  1.0
  C  C441  1  0.70868000  0.50636000  0.19858000  1.0
  C  C442  1  0.62611000  0.49005000  0.21275000  1.0
  C  C443  1  0.60295000  0.49011000  0.19604000  1.0
  C  C444  1  0.57349000  0.48446000  0.20317000  1.0
  C  C445  1  0.56734000  0.47867000  0.22693000  1.0
  C  C446  1  0.73485000  0.31741000  0.45537000  1.0
  C  C447  1  0.60371000  0.27906000  0.50334000  1.0
  C  C448  1  0.57444000  0.28232000  0.51278000  1.0
  C  C449  1  0.57096000  0.29695000  0.53341000  1.0
  C  C450  1  0.59602000  0.30810000  0.54394000  1.0
  C  C451  1  0.62446000  0.30458000  0.53384000  1.0
  C  C452  1  0.69308000  0.30180000  0.56966000  1.0
  C  C453  1  0.67759000  0.31105000  0.58975000  1.0
  C  C454  1  0.65376000  0.29646000  0.59904000  1.0
  C  C455  1  0.64615000  0.27336000  0.58870000  1.0
  C  C456  1  0.66223000  0.26489000  0.56901000  1.0
  C  C457  1  0.73449000  0.20943000  0.47970000  1.0
  C  C458  1  0.75460000  0.19180000  0.46932000  1.0
  C  C459  1  0.77292000  0.20004000  0.45052000  1.0
  C  C460  1  0.77069000  0.22505000  0.44238000  1.0
  C  C461  1  0.74979000  0.24161000  0.45283000  1.0
  C  C462  1  0.77875000  0.29864000  0.47217000  1.0
  C  C463  1  0.79537000  0.30399000  0.45177000  1.0
  C  C464  1  0.78129000  0.31624000  0.43285000  1.0
  C  C465  1  0.75061000  0.32319000  0.43437000  1.0
  C  C466  1  0.38965000  0.48501000  0.74328000  1.0
  C  C467  1  0.29605000  0.41921000  0.65998000  1.0
  C  C468  1  0.28498000  0.40133000  0.64368000  1.0
  C  C469  1  0.26432000  0.38304000  0.65160000  1.0
  C  C470  1  0.25515000  0.38281000  0.67521000  1.0
  C  C471  1  0.26623000  0.40122000  0.69066000  1.0
  C  C472  1  0.28367000  0.52198000  0.66056000  1.0
  C  C473  1  0.27986000  0.52717000  0.63634000  1.0
  C  C474  1  0.27088000  0.50733000  0.62137000  1.0
  C  C475  1  0.26542000  0.48321000  0.63070000  1.0
  C  C476  1  0.26868000  0.47919000  0.65497000  1.0
  C  C477  1  0.24323000  0.45925000  0.78057000  1.0
  C  C478  1  0.22818000  0.46679000  0.80143000  1.0
  C  C479  1  0.23640000  0.49011000  0.81176000  1.0
  C  C480  1  0.25830000  0.50536000  0.80099000  1.0
  C  C481  1  0.27222000  0.49715000  0.78012000  1.0
  C  C482  1  0.34940000  0.47391000  0.76922000  1.0
  C  C483  1  0.36925000  0.47238000  0.78822000  1.0
  C  C484  1  0.39986000  0.47735000  0.78462000  1.0
  C  C485  1  0.41083000  0.48348000  0.76190000  1.0
  C  C486  1  0.27114000  0.66916000  0.43718000  1.0
  C  C487  1  0.37599000  0.70783000  0.51173000  1.0
  C  C488  1  0.40252000  0.70805000  0.52547000  1.0
  C  C489  1  0.39961000  0.71005000  0.55017000  1.0
  C  C490  1  0.37111000  0.71199000  0.56053000  1.0
  C  C491  1  0.34559000  0.71190000  0.54620000  1.0
  C  C492  1  0.27731000  0.66778000  0.55757000  1.0
  C  C493  1  0.28494000  0.65800000  0.57998000  1.0
  C  C494  1  0.28502000  0.67466000  0.59941000  1.0
  C  C495  1  0.27700000  0.70008000  0.59647000  1.0
  C  C496  1  0.26929000  0.70886000  0.57404000  1.0
  C  C497  1  0.21851000  0.75902000  0.48603000  1.0
  C  C498  1  0.19422000  0.77343000  0.47721000  1.0
  C  C499  1  0.19490000  0.78055000  0.45320000  1.0
  C  C500  1  0.21961000  0.77389000  0.43901000  1.0
  C  C501  1  0.24338000  0.75987000  0.44873000  1.0
  C  C502  1  0.23005000  0.69683000  0.44604000  1.0
  C  C503  1  0.22148000  0.69731000  0.42237000  1.0
  C  C504  1  0.23800000  0.68325000  0.40586000  1.0
  C  C505  1  0.26301000  0.66857000  0.41305000  1.0
  C  C506  1  0.37198000  0.48672000  0.23960000  1.0
  C  C507  1  0.30961000  0.55691000  0.31920000  1.0
  C  C508  1  0.30750000  0.56873000  0.34153000  1.0
  C  C509  1  0.28184000  0.56418000  0.35550000  1.0
  C  C510  1  0.25876000  0.54879000  0.34700000  1.0
  C  C511  1  0.26176000  0.53756000  0.32477000  1.0
  C  C512  1  0.26689000  0.45539000  0.31463000  1.0
  C  C513  1  0.25989000  0.44633000  0.33739000  1.0
  C  C514  1  0.23353000  0.45529000  0.34856000  1.0
  C  C515  1  0.21432000  0.47202000  0.33673000  1.0
  C  C516  1  0.22180000  0.47999000  0.31394000  1.0
  C  C517  1  0.23472000  0.50893000  0.20627000  1.0
  C  C518  1  0.22212000  0.50828000  0.18343000  1.0
  C  C519  1  0.24055000  0.51531000  0.16422000  1.0
  C  C520  1  0.27043000  0.52283000  0.16816000  1.0
  C  C521  1  0.28163000  0.52367000  0.19127000  1.0
  C  C522  1  0.33347000  0.47955000  0.21117000  1.0
  C  C523  1  0.35481000  0.47901000  0.19300000  1.0
  C  C524  1  0.38534000  0.48214000  0.19835000  1.0
  C  C525  1  0.39455000  0.48605000  0.22189000  1.0
  C  C526  1  0.27838000  0.30544000  0.52812000  1.0
  C  C527  1  0.39013000  0.26529000  0.46554000  1.0
  C  C528  1  0.41924000  0.26524000  0.45548000  1.0
  C  C529  1  0.42226000  0.26061000  0.43117000  1.0
  C  C530  1  0.39670000  0.25593000  0.41751000  1.0
  C  C531  1  0.36827000  0.25601000  0.42827000  1.0
  C  C532  1  0.29045000  0.30936000  0.41568000  1.0
  C  C533  1  0.29908000  0.32404000  0.39605000  1.0
  C  C534  1  0.30941000  0.31148000  0.37565000  1.0
  C  C535  1  0.31070000  0.28497000  0.37513000  1.0
  C  C536  1  0.30142000  0.27119000  0.39496000  1.0
  C  C537  1  0.22932000  0.21397000  0.47786000  1.0
  C  C538  1  0.20350000  0.20091000  0.48574000  1.0
  C  C539  1  0.20217000  0.19360000  0.50970000  1.0
  C  C540  1  0.22636000  0.19871000  0.52476000  1.0
  C  C541  1  0.25161000  0.21149000  0.51598000  1.0
  C  C542  1  0.23936000  0.27568000  0.52046000  1.0
  C  C543  1  0.22858000  0.27809000  0.54354000  1.0
  C  C544  1  0.24276000  0.29488000  0.55903000  1.0
  C  C545  1  0.26791000  0.30909000  0.55146000  1.0
  C  C546  1  0.70457000  0.58328000  0.62519000  1.0
  C  C547  1  0.70889000  0.59904000  0.58722000  1.0
  C  C548  1  0.68667000  0.61579000  0.57877000  1.0
  C  C549  1  0.73900000  0.60218000  0.57998000  1.0
  C  C550  1  0.69448000  0.63536000  0.56306000  1.0
  C  C551  1  0.74692000  0.62193000  0.56466000  1.0
  C  C552  1  0.72472000  0.63855000  0.55583000  1.0
  C  C553  1  0.69242000  0.53953000  0.35786000  1.0
  C  C554  1  0.68947000  0.58287000  0.35667000  1.0
  C  C555  1  0.65977000  0.59178000  0.35438000  1.0
  C  C556  1  0.71060000  0.59734000  0.36919000  1.0
  C  C557  1  0.65132000  0.61514000  0.36421000  1.0
  C  C558  1  0.70237000  0.62098000  0.37869000  1.0
  C  C559  1  0.67274000  0.63046000  0.37585000  1.0
  C  C560  1  0.71014000  0.39620000  0.35110000  1.0
  C  C561  1  0.70762000  0.36165000  0.37597000  1.0
  C  C562  1  0.70042000  0.36846000  0.39930000  1.0
  C  C563  1  0.72799000  0.34169000  0.37182000  1.0
  C  C564  1  0.71425000  0.35596000  0.41831000  1.0
  C  C565  1  0.74181000  0.32914000  0.39076000  1.0
  C  C566  1  0.73532000  0.33624000  0.41426000  1.0
  C  C567  1  0.71605000  0.41788000  0.63643000  1.0
  C  C568  1  0.70401000  0.37608000  0.63060000  1.0
  C  C569  1  0.67340000  0.37152000  0.62618000  1.0
  C  C570  1  0.72608000  0.36066000  0.61994000  1.0
  C  C571  1  0.66483000  0.35120000  0.61177000  1.0
  C  C572  1  0.71757000  0.34024000  0.60557000  1.0
  C  C573  1  0.68680000  0.33487000  0.60186000  1.0
  C  C574  1  0.29356000  0.40266000  0.61791000  1.0
  C  C575  1  0.30544000  0.36588000  0.59786000  1.0
  C  C576  1  0.30487000  0.36995000  0.57336000  1.0
  C  C577  1  0.29552000  0.34263000  0.60704000  1.0
  C  C578  1  0.29298000  0.35145000  0.55827000  1.0
  C  C579  1  0.28392000  0.32396000  0.59197000  1.0
  C  C580  1  0.28207000  0.32826000  0.56739000  1.0
  C  C581  1  0.28206000  0.55401000  0.62724000  1.0
  C  C582  1  0.29745000  0.57934000  0.59720000  1.0
  C  C583  1  0.27446000  0.58660000  0.58152000  1.0
  C  C584  1  0.31863000  0.59736000  0.60468000  1.0
  C  C585  1  0.27131000  0.61209000  0.57479000  1.0
  C  C586  1  0.31536000  0.62286000  0.59816000  1.0
  C  C587  1  0.29117000  0.63058000  0.58370000  1.0
  C  C588  1  0.33254000  0.58538000  0.35076000  1.0
  C  C589  1  0.31206000  0.62401000  0.36137000  1.0
  C  C590  1  0.28064000  0.62670000  0.35980000  1.0
  C  C591  1  0.32757000  0.63606000  0.37984000  1.0
  C  C592  1  0.26471000  0.64068000  0.37684000  1.0
  C  C593  1  0.31171000  0.65024000  0.39684000  1.0
  C  C594  1  0.28003000  0.65282000  0.39551000  1.0
  C  C595  1  0.29400000  0.35235000  0.39610000  1.0
  C  C596  1  0.30678000  0.38579000  0.37247000  1.0
  C  C597  1  0.29952000  0.38365000  0.34843000  1.0
  C  C598  1  0.30152000  0.40879000  0.38434000  1.0
  C  C599  1  0.28557000  0.40389000  0.33666000  1.0
  C  C600  1  0.28709000  0.42891000  0.37271000  1.0
  C  C601  1  0.27850000  0.42645000  0.34888000  1.0
  C  C602  1  0.92183000  0.54808000  0.93249000  1.0
  C  C603  1  0.90461000  0.53206000  0.91478000  1.0
  C  C604  1  0.90816000  0.53667000  0.89042000  1.0
  C  C605  1  0.88831000  0.52601000  0.87396000  1.0
  C  C606  1  0.86390000  0.51084000  0.88144000  1.0
  C  C607  1  0.86126000  0.50524000  0.90576000  1.0
  C  C608  1  0.88143000  0.51565000  0.92219000  1.0
  C  C609  1  0.77269000  0.47616000  0.81392000  1.0
  C  C610  1  0.79552000  0.48584000  0.83179000  1.0
  C  C611  1  0.81015000  0.50928000  0.82869000  1.0
  C  C612  1  0.83214000  0.51738000  0.84479000  1.0
  C  C613  1  0.84064000  0.50198000  0.86412000  1.0
  C  C614  1  0.82627000  0.47831000  0.86691000  1.0
  C  C615  1  0.80400000  0.47039000  0.85098000  1.0
  C  C616  1  0.91987000  0.91787000  0.52803000  1.0
  C  C617  1  0.89877000  0.90024000  0.51495000  1.0
  C  C618  1  0.87672000  0.90932000  0.49918000  1.0
  C  C619  1  0.85573000  0.89256000  0.48917000  1.0
  C  C620  1  0.85638000  0.86646000  0.49480000  1.0
  C  C621  1  0.87880000  0.85746000  0.51027000  1.0
  C  C622  1  0.89963000  0.87414000  0.52025000  1.0
  C  C623  1  0.76529000  0.79508000  0.46200000  1.0
  C  C624  1  0.78893000  0.81373000  0.47026000  1.0
  C  C625  1  0.78063000  0.83850000  0.47702000  1.0
  C  C626  1  0.80258000  0.85581000  0.48454000  1.0
  C  C627  1  0.83325000  0.84865000  0.48543000  1.0
  C  C628  1  0.84146000  0.82388000  0.47840000  1.0
  C  C629  1  0.81952000  0.80660000  0.47092000  1.0
  C  C630  1  0.92369000  0.53256000  0.05542000  1.0
  C  C631  1  0.90085000  0.51698000  0.06922000  1.0
  C  C632  1  0.89659000  0.52244000  0.09336000  1.0
  C  C633  1  0.87324000  0.51107000  0.10623000  1.0
  C  C634  1  0.85331000  0.49402000  0.09526000  1.0
  C  C635  1  0.85806000  0.48794000  0.07123000  1.0
  C  C636  1  0.88159000  0.49930000  0.05833000  1.0
  C  C637  1  0.74954000  0.45533000  0.14812000  1.0
  C  C638  1  0.77632000  0.46592000  0.13458000  1.0
  C  C639  1  0.80481000  0.46760000  0.14535000  1.0
  C  C640  1  0.82987000  0.47638000  0.13254000  1.0
  C  C641  1  0.82697000  0.48365000  0.10865000  1.0
  C  C642  1  0.79837000  0.48191000  0.09794000  1.0
  C  C643  1  0.77335000  0.47314000  0.11076000  1.0
  C  C644  1  0.91510000  0.05005000  0.53935000  1.0
  C  C645  1  0.89848000  0.06918000  0.52411000  1.0
  C  C646  1  0.87720000  0.06119000  0.50729000  1.0
  C  C647  1  0.85741000  0.07875000  0.49683000  1.0
  C  C648  1  0.85839000  0.10470000  0.50302000  1.0
  C  C649  1  0.88092000  0.11283000  0.51880000  1.0
  C  C650  1  0.90063000  0.09528000  0.52926000  1.0
  C  C651  1  0.75301000  0.16398000  0.47600000  1.0
  C  C652  1  0.78347000  0.15213000  0.48143000  1.0
  C  C653  1  0.79731000  0.13547000  0.46518000  1.0
  C  C654  1  0.82248000  0.12089000  0.47178000  1.0
  C  C655  1  0.83437000  0.12263000  0.49479000  1.0
  C  C656  1  0.82143000  0.14037000  0.51059000  1.0
  C  C657  1  0.79626000  0.15493000  0.50397000  1.0
  C  C658  1  0.07677000  0.53121000  0.94019000  1.0
  C  C659  1  0.08963000  0.51697000  0.91907000  1.0
  C  C660  1  0.09968000  0.53102000  0.89939000  1.0
  C  C661  1  0.11616000  0.51935000  0.88122000  1.0
  C  C662  1  0.12339000  0.49336000  0.88241000  1.0
  C  C663  1  0.11234000  0.47902000  0.90160000  1.0
  C  C664  1  0.09549000  0.49067000  0.91969000  1.0
  C  C665  1  0.20493000  0.44904000  0.81225000  1.0
  C  C666  1  0.18417000  0.46108000  0.83047000  1.0
  C  C667  1  0.18780000  0.45567000  0.85464000  1.0
  C  C668  1  0.16778000  0.46582000  0.87142000  1.0
  C  C669  1  0.14378000  0.48171000  0.86439000  1.0
  C  C670  1  0.14028000  0.48722000  0.84017000  1.0
  C  C671  1  0.16021000  0.47691000  0.82338000  1.0
  C  C672  1  0.03994000  0.93204000  0.44595000  1.0
  C  C673  1  0.05898000  0.90965000  0.45409000  1.0
  C  C674  1  0.07303000  0.90879000  0.47641000  1.0
  C  C675  1  0.09097000  0.88789000  0.48282000  1.0
  C  C676  1  0.09526000  0.86745000  0.46708000  1.0
  C  C677  1  0.08138000  0.86844000  0.44477000  1.0
  C  C678  1  0.06358000  0.88931000  0.43835000  1.0
  C  C679  1  0.16772000  0.77925000  0.49343000  1.0
  C  C680  1  0.14935000  0.80223000  0.48616000  1.0
  C  C681  1  0.15921000  0.82687000  0.49173000  1.0
  C  C682  1  0.14164000  0.84809000  0.48567000  1.0
  C  C683  1  0.11393000  0.84503000  0.47383000  1.0
  C  C684  1  0.10423000  0.82030000  0.46821000  1.0
  C  C685  1  0.12173000  0.79914000  0.47434000  1.0
  C  C686  1  0.05581000  0.45691000  0.04368000  1.0
  C  C687  1  0.08020000  0.46795000  0.05953000  1.0
  C  C688  1  0.07464000  0.48886000  0.07444000  1.0
  C  C689  1  0.09584000  0.49602000  0.09156000  1.0
  C  C690  1  0.12330000  0.48260000  0.09409000  1.0
  C  C691  1  0.12950000  0.46259000  0.07826000  1.0
  C  C692  1  0.10816000  0.45526000  0.06136000  1.0
  C  C693  1  0.18892000  0.50156000  0.18114000  1.0
  C  C694  1  0.17708000  0.49745000  0.15631000  1.0
  C  C695  1  0.16394000  0.51767000  0.14368000  1.0
  C  C696  1  0.14773000  0.51309000  0.12286000  1.0
  C  C697  1  0.14410000  0.48813000  0.11426000  1.0
  C  C698  1  0.15878000  0.46813000  0.12629000  1.0
  C  C699  1  0.17513000  0.47276000  0.14702000  1.0
  C  C700  1  0.07018000  0.03697000  0.52154000  1.0
  C  C701  1  0.08132000  0.06187000  0.51140000  1.0
  C  C702  1  0.08860000  0.06454000  0.48728000  1.0
  C  C703  1  0.10261000  0.08671000  0.47903000  1.0
  C  C704  1  0.10917000  0.10672000  0.49468000  1.0
  C  C705  1  0.10107000  0.10432000  0.51861000  1.0
  C  C706  1  0.08758000  0.08208000  0.52689000  1.0
  C  C707  1  0.17749000  0.19672000  0.46878000  1.0
  C  C708  1  0.15903000  0.17338000  0.47450000  1.0
  C  C709  1  0.16894000  0.14917000  0.46730000  1.0
  C  C710  1  0.15222000  0.12751000  0.47319000  1.0
  C  C711  1  0.12546000  0.12972000  0.48655000  1.0
  C  C712  1  0.11535000  0.15401000  0.49338000  1.0
  C  C713  1  0.13189000  0.17564000  0.48730000  1.0
  C  C714  1  0.55413000  0.49368000  0.74046000  1.0
  C  C715  1  0.50585000  0.50124000  0.75417000  1.0
  C  C716  1  0.49631000  0.48281000  0.77041000  1.0
  C  C717  1  0.48447000  0.51300000  0.73950000  1.0
  C  C718  1  0.46576000  0.47625000  0.77209000  1.0
  C  C719  1  0.45370000  0.50686000  0.74148000  1.0
  C  C720  1  0.44380000  0.48866000  0.75813000  1.0
  C  C721  1  0.52852000  0.70997000  0.47009000  1.0
  C  C722  1  0.49158000  0.69839000  0.49610000  1.0
  C  C723  1  0.48662000  0.71589000  0.51436000  1.0
  C  C724  1  0.46721000  0.68475000  0.48677000  1.0
  C  C725  1  0.45749000  0.71965000  0.52336000  1.0
  C  C726  1  0.43804000  0.68840000  0.49581000  1.0
  C  C727  1  0.43293000  0.70564000  0.51446000  1.0
  C  C728  1  0.53569000  0.47183000  0.23458000  1.0
  C  C729  1  0.48987000  0.49213000  0.23755000  1.0
  C  C730  1  0.47805000  0.50297000  0.21693000  1.0
  C  C731  1  0.47032000  0.48018000  0.25363000  1.0
  C  C732  1  0.44710000  0.50140000  0.21207000  1.0
  C  C733  1  0.43935000  0.47833000  0.24869000  1.0
  C  C734  1  0.42732000  0.48880000  0.22774000  1.0
  C  C735  1  0.44674000  0.27053000  0.47018000  1.0
  C  C736  1  0.49348000  0.25580000  0.47941000  1.0
  C  C737  1  0.51705000  0.26575000  0.46564000  1.0
  C  C738  1  0.49755000  0.25238000  0.50376000  1.0
  C  C739  1  0.54391000  0.27358000  0.47636000  1.0
  C  C740  1  0.52430000  0.26030000  0.51453000  1.0
  C  C741  1  0.54752000  0.27145000  0.50100000  1.0
  Br  Br742  1  0.69865000  0.44247000  0.73628000  1.0
  Br  Br743  1  0.75944000  0.51347000  0.71932000  1.0
  Br  Br744  1  0.68528000  0.55318000  0.72398000  1.0
  Br  Br745  1  0.66242000  0.49151000  0.68174000  1.0
  Br  Br746  1  0.74201000  0.69406000  0.43877000  1.0
  Br  Br747  1  0.65387000  0.74193000  0.44997000  1.0
  Br  Br748  1  0.64610000  0.70767000  0.51094000  1.0
  Br  Br749  1  0.66768000  0.64923000  0.46560000  1.0
  Br  Br750  1  0.67273000  0.53016000  0.26116000  1.0
  Br  Br751  1  0.74213000  0.46386000  0.25692000  1.0
  Br  Br752  1  0.67284000  0.42513000  0.23058000  1.0
  Br  Br753  1  0.64200000  0.45983000  0.29271000  1.0
  Br  Br754  1  0.75917000  0.27948000  0.53360000  1.0
  Br  Br755  1  0.67107000  0.23596000  0.51340000  1.0
  Br  Br756  1  0.66640000  0.27779000  0.45738000  1.0
  Br  Br757  1  0.68898000  0.32980000  0.50889000  1.0
  Br  Br758  1  0.31070000  0.52795000  0.72075000  1.0
  Br  Br759  1  0.24233000  0.46105000  0.71290000  1.0
  Br  Br760  1  0.30735000  0.42036000  0.74282000  1.0
  Br  Br761  1  0.34778000  0.46101000  0.68730000  1.0
  Br  Br762  1  0.21730000  0.68216000  0.50972000  1.0
  Br  Br763  1  0.28585000  0.74871000  0.52414000  1.0
  Br  Br764  1  0.32355000  0.73038000  0.46415000  1.0
  Br  Br765  1  0.31029000  0.66120000  0.49632000  1.0
  Br  Br766  1  0.27605000  0.44675000  0.24987000  1.0
  Br  Br767  1  0.23506000  0.52674000  0.26782000  1.0
  Br  Br768  1  0.31502000  0.55318000  0.25194000  1.0
  Br  Br769  1  0.33135000  0.49182000  0.29690000  1.0
  Br  Br770  1  0.23072000  0.28608000  0.45508000  1.0
  Br  Br771  1  0.30246000  0.22273000  0.44266000  1.0
  Br  Br772  1  0.33220000  0.24004000  0.50635000  1.0
  Br  Br773  1  0.32255000  0.30942000  0.47237000  1.0
  N  N774  1  0.03548000  0.49892000  0.99109000  1.0
  N  N775  1  0.98866000  0.49862000  0.02537000  1.0
  N  N776  1  0.94811000  0.52048000  0.99186000  1.0
  N  N777  1  0.99494000  0.52008000  0.95727000  1.0
  N  N778  1  0.02541000  0.98698000  0.48868000  1.0
  N  N779  1  0.98731000  0.02260000  0.51199000  1.0
  N  N780  1  0.94062000  0.98585000  0.51385000  1.0
  N  N781  1  0.97893000  0.95037000  0.49056000  1.0
  N  N782  1  0.74418000  0.45821000  0.68705000  1.0
  N  N783  1  0.72080000  0.51393000  0.77362000  1.0
  N  N784  1  0.63978000  0.48936000  0.74321000  1.0
  N  N785  1  0.72071000  0.53056000  0.66947000  1.0
  N  N786  1  0.67046000  0.69253000  0.40968000  1.0
  N  N787  1  0.71380000  0.74781000  0.49197000  1.0
  N  N788  1  0.72686000  0.67840000  0.50054000  1.0
  N  N789  1  0.60863000  0.69038000  0.45552000  1.0
  N  N790  1  0.70990000  0.49432000  0.30747000  1.0
  N  N791  1  0.71085000  0.48101000  0.20315000  1.0
  N  N792  1  0.62005000  0.48464000  0.23581000  1.0
  N  N793  1  0.70479000  0.41894000  0.28753000  1.0
  N  N794  1  0.68484000  0.27927000  0.55957000  1.0
  N  N795  1  0.73238000  0.23369000  0.47129000  1.0
  N  N796  1  0.74902000  0.30523000  0.47356000  1.0
  N  N797  1  0.62798000  0.29007000  0.51404000  1.0
  N  N798  1  0.27828000  0.49828000  0.66934000  1.0
  N  N799  1  0.26474000  0.47431000  0.77051000  1.0
  N  N800  1  0.35968000  0.48041000  0.74737000  1.0
  N  N801  1  0.28610000  0.41916000  0.68289000  1.0
  N  N802  1  0.27036000  0.69293000  0.55504000  1.0
  N  N803  1  0.24225000  0.75260000  0.47181000  1.0
  N  N804  1  0.25469000  0.68324000  0.45296000  1.0
  N  N805  1  0.34829000  0.70981000  0.52228000  1.0
  N  N806  1  0.24825000  0.47240000  0.30369000  1.0
  N  N807  1  0.26373000  0.51672000  0.20977000  1.0
  N  N808  1  0.34225000  0.48347000  0.23391000  1.0
  N  N809  1  0.28699000  0.54146000  0.31139000  1.0
  N  N810  1  0.29220000  0.28351000  0.41491000  1.0
  N  N811  1  0.25247000  0.21899000  0.49296000  1.0
  N  N812  1  0.26398000  0.28907000  0.51326000  1.0
  N  N813  1  0.36541000  0.26067000  0.45188000  1.0
  Cl  Cl814  1  0.97779000  0.46949000  0.97964000  1.0
  Cl  Cl815  1  0.00067000  0.97263000  0.53730000  1.0
  O  O816  1  0.70080000  0.57813000  0.60071000  1.0
  O  O817  1  0.69879000  0.56152000  0.34437000  1.0
  O  O818  1  0.69388000  0.37383000  0.35710000  1.0
  O  O819  1  0.71238000  0.39387000  0.64730000  1.0
  O  O820  1  0.31652000  0.38446000  0.61284000  1.0
  O  O821  1  0.29870000  0.55470000  0.60578000  1.0
  O  O822  1  0.32788000  0.61105000  0.34390000  1.0
  O  O823  1  0.31820000  0.36497000  0.38447000  1.0
  O  O824  1  0.53548000  0.50970000  0.75454000  1.0
  O  O825  1  0.52062000  0.69308000  0.48855000  1.0
  O  O826  1  0.52048000  0.49415000  0.24231000  1.0
  O  O827  1  0.46641000  0.24925000  0.46896000  1.0
