# generated using pymatgen
data_CuH110C120(N3O4)2
_symmetry_space_group_name_H-M   'P 1'
_cell_length_a   46.13940000
_cell_length_b   48.46170000
_cell_length_c   53.51000000
_cell_angle_alpha   91.15200000
_cell_angle_beta   90.82300000
_cell_angle_gamma   90.58700000
_symmetry_Int_Tables_number   1
_chemical_formula_structural   CuH110C120(N3O4)2
_chemical_formula_sum   'Cu3 H330 C360 N18 O24'
_cell_volume   119604.86182457
_cell_formula_units_Z   3
loop_
 _symmetry_equiv_pos_site_id
 _symmetry_equiv_pos_as_xyz
  1  'x, y, z'
loop_
 _atom_site_type_symbol
 _atom_site_label
 _atom_site_symmetry_multiplicity
 _atom_site_fract_x
 _atom_site_fract_y
 _atom_site_fract_z
 _atom_site_occupancy
  Cu  Cu0  1  0.03984000  0.40663000  0.44045000  1.0
  Cu  Cu1  1  0.40384000  0.43730000  0.99284000  1.0
  Cu  Cu2  1  0.46416000  0.00003000  0.41233000  1.0
  H  H3  1  0.90827000  0.44651000  0.60034000  1.0
  H  H4  1  0.90120000  0.45001000  0.56871000  1.0
  H  H5  1  0.90518000  0.42811000  0.53319000  1.0
  H  H6  1  0.90828000  0.39095000  0.53482000  1.0
  H  H7  1  0.92843000  0.41124000  0.51290000  1.0
  H  H8  1  0.00732000  0.41853000  0.62575000  1.0
  H  H9  1  0.02677000  0.39832000  0.60534000  1.0
  H  H10  1  0.94859000  0.46646000  0.61230000  1.0
  H  H11  1  0.97960000  0.45339000  0.62623000  1.0
  H  H12  1  0.94625000  0.43444000  0.62948000  1.0
  H  H13  1  0.02974000  0.39610000  0.53584000  1.0
  H  H14  1  0.02834000  0.37392000  0.56259000  1.0
  H  H15  1  0.04348000  0.40849000  0.56442000  1.0
  H  H16  1  0.95547000  0.37312000  0.51645000  1.0
  H  H17  1  0.99017000  0.36544000  0.52734000  1.0
  H  H18  1  0.90967000  0.40874000  0.28351000  1.0
  H  H19  1  0.89757000  0.42707000  0.30956000  1.0
  H  H20  1  0.91467000  0.44843000  0.34879000  1.0
  H  H21  1  0.93938000  0.42739000  0.36640000  1.0
  H  H22  1  0.91762000  0.41129000  0.34344000  1.0
  H  H23  1  0.00946000  0.44945000  0.25248000  1.0
  H  H24  1  0.03119000  0.46379000  0.27604000  1.0
  H  H25  1  0.94026000  0.41310000  0.25343000  1.0
  H  H26  1  0.97689000  0.41586000  0.24658000  1.0
  H  H27  1  0.95509000  0.44672000  0.24678000  1.0
  H  H28  1  0.03869000  0.44578000  0.34374000  1.0
  H  H29  1  0.03714000  0.47527000  0.32353000  1.0
  H  H30  1  0.04991000  0.44198000  0.31291000  1.0
  H  H31  1  0.96737000  0.46503000  0.36980000  1.0
  H  H32  1  0.00254000  0.47347000  0.36094000  1.0
  H  H33  1  0.49468000  0.58604000  0.87742000  1.0
  H  H34  1  0.48341000  0.55208000  0.87463000  1.0
  H  H35  1  0.45061000  0.52307000  0.88457000  1.0
  H  H36  1  0.41449000  0.53716000  0.88685000  1.0
  H  H37  1  0.42799000  0.51117000  0.90766000  1.0
  H  H38  1  0.47792000  0.63833000  0.95519000  1.0
  H  H39  1  0.45121000  0.62745000  0.97539000  1.0
  H  H40  1  0.52032000  0.59661000  0.91057000  1.0
  H  H41  1  0.51465000  0.61898000  0.93580000  1.0
  H  H42  1  0.49701000  0.62635000  0.90642000  1.0
  H  H43  1  0.42678000  0.55568000  0.99029000  1.0
  H  H44  1  0.41146000  0.58922000  0.98402000  1.0
  H  H45  1  0.44747000  0.58535000  0.99712000  1.0
  H  H46  1  0.39242000  0.53177000  0.93018000  1.0
  H  H47  1  0.39170000  0.54777000  0.95958000  1.0
  H  H48  1  0.50540000  0.28049000  0.97980000  1.0
  H  H49  1  0.49544000  0.31208000  0.99202000  1.0
  H  H50  1  0.47185000  0.35553000  0.98221000  1.0
  H  H51  1  0.48787000  0.37362000  0.95664000  1.0
  H  H52  1  0.50830000  0.34842000  0.97135000  1.0
  H  H53  1  0.43939000  0.24851000  0.90307000  1.0
  H  H54  1  0.42956000  0.27351000  0.88205000  1.0
  H  H55  1  0.49256000  0.24772000  0.95488000  1.0
  H  H56  1  0.48104000  0.23931000  0.92467000  1.0
  H  H57  1  0.45428000  0.24243000  0.94896000  1.0
  H  H58  1  0.45545000  0.34523000  0.87535000  1.0
  H  H59  1  0.42077000  0.32794000  0.87985000  1.0
  H  H60  1  0.45132000  0.31074000  0.86590000  1.0
  H  H61  1  0.46740000  0.38114000  0.91870000  1.0
  H  H62  1  0.43391000  0.36926000  0.90541000  1.0
  H  H63  1  0.64845000  0.88028000  0.44381000  1.0
  H  H64  1  0.61183000  0.87428000  0.44366000  1.0
  H  H65  1  0.57470000  0.87338000  0.41882000  1.0
  H  H66  1  0.57757000  0.87972000  0.38589000  1.0
  H  H67  1  0.55095000  0.89650000  0.40529000  1.0
  H  H68  1  0.67955000  0.97577000  0.42262000  1.0
  H  H69  1  0.65548000  0.99614000  0.40634000  1.0
  H  H70  1  0.68150000  0.90162000  0.42472000  1.0
  H  H71  1  0.68164000  0.93068000  0.44623000  1.0
  H  H72  1  0.68994000  0.93377000  0.41325000  1.0
  H  H73  1  0.57459000  0.99438000  0.40104000  1.0
  H  H74  1  0.60662000  0.99734000  0.38221000  1.0
  H  H75  1  0.60642000  0.00688000  0.41505000  1.0
  H  H76  1  0.55476000  0.92589000  0.37348000  1.0
  H  H77  1  0.56621000  0.96000000  0.36992000  1.0
  H  H78  1  0.26580000  0.89709000  0.42281000  1.0
  H  H79  1  0.30083000  0.88649000  0.42266000  1.0
  H  H80  1  0.33985000  0.88761000  0.44430000  1.0
  H  H81  1  0.34399000  0.90409000  0.47453000  1.0
  H  H82  1  0.36854000  0.91059000  0.44919000  1.0
  H  H83  1  0.24953000  0.99967000  0.43288000  1.0
  H  H84  1  0.27857000  0.01977000  0.44341000  1.0
  H  H85  1  0.23766000  0.92661000  0.43714000  1.0
  H  H86  1  0.23908000  0.95278000  0.41398000  1.0
  H  H87  1  0.23545000  0.96061000  0.44716000  1.0
  H  H88  1  0.32619000  0.02298000  0.42611000  1.0
  H  H89  1  0.35855000  0.00983000  0.43748000  1.0
  H  H90  1  0.33151000  0.02086000  0.45955000  1.0
  H  H91  1  0.37435000  0.94780000  0.47471000  1.0
  H  H92  1  0.36804000  0.98310000  0.47311000  1.0
  H  H93  1  0.57070000  0.22653000  0.73278000  1.0
  H  H94  1  0.64531000  0.17998000  0.71112000  1.0
  H  H95  1  0.61994000  0.18179000  0.78773000  1.0
  H  H96  1  0.65283000  0.16592000  0.75478000  1.0
  H  H97  1  0.61470000  0.24741000  0.67643000  1.0
  H  H98  1  0.63755000  0.24110000  0.70137000  1.0
  H  H99  1  0.58733000  0.18563000  0.65155000  1.0
  H  H100  1  0.59040000  0.20235000  0.62196000  1.0
  H  H101  1  0.68389000  0.14600000  0.61212000  1.0
  H  H102  1  0.58825000  0.22277000  0.64887000  1.0
  H  H103  1  0.70209000  0.17553000  0.59866000  1.0
  H  H104  1  0.71546000  0.15905000  0.62672000  1.0
  H  H105  1  0.68827000  0.25084000  0.69111000  1.0
  H  H106  1  0.67895000  0.22103000  0.70958000  1.0
  H  H107  1  0.71226000  0.22196000  0.69454000  1.0
  H  H108  1  0.69082000  0.23778000  0.61296000  1.0
  H  H109  1  0.64883000  0.16615000  0.59042000  1.0
  H  H110  1  0.73371000  0.20175000  0.63067000  1.0
  H  H111  1  0.73535000  0.19806000  0.66320000  1.0
  H  H112  1  0.77162000  0.27154000  0.64161000  1.0
  H  H113  1  0.62196000  0.18982000  0.59420000  1.0
  H  H114  1  0.62072000  0.12308000  0.57063000  1.0
  H  H115  1  0.73729000  0.29570000  0.56979000  1.0
  H  H116  1  0.65257000  0.05217000  0.61005000  1.0
  H  H117  1  0.64859000  0.07801000  0.64970000  1.0
  H  H118  1  0.62999000  0.12567000  0.65052000  1.0
  H  H119  1  0.69582000  0.26453000  0.57504000  1.0
  H  H120  1  0.35773000  0.23684000  0.12880000  1.0
  H  H121  1  0.27973000  0.19121000  0.14372000  1.0
  H  H122  1  0.30320000  0.20555000  0.06809000  1.0
  H  H123  1  0.26970000  0.18608000  0.09857000  1.0
  H  H124  1  0.31886000  0.24596000  0.19270000  1.0
  H  H125  1  0.30025000  0.25371000  0.16560000  1.0
  H  H126  1  0.32426000  0.17158000  0.20913000  1.0
  H  H127  1  0.31872000  0.19452000  0.23584000  1.0
  H  H128  1  0.21856000  0.14476000  0.20976000  1.0
  H  H129  1  0.33467000  0.20704000  0.20871000  1.0
  H  H130  1  0.20170000  0.17050000  0.22984000  1.0
  H  H131  1  0.19351000  0.16731000  0.19658000  1.0
  H  H132  1  0.24981000  0.26897000  0.17174000  1.0
  H  H133  1  0.25882000  0.24526000  0.14632000  1.0
  H  H134  1  0.22298000  0.24731000  0.15591000  1.0
  H  H135  1  0.21890000  0.23140000  0.24048000  1.0
  H  H136  1  0.25097000  0.15063000  0.24115000  1.0
  H  H137  1  0.18288000  0.21130000  0.20487000  1.0
  H  H138  1  0.18932000  0.21781000  0.17327000  1.0
  H  H139  1  0.15965000  0.28894000  0.20766000  1.0
  H  H140  1  0.28714000  0.16132000  0.24463000  1.0
  H  H141  1  0.28196000  0.11442000  0.26120000  1.0
  H  H142  1  0.16815000  0.28305000  0.28783000  1.0
  H  H143  1  0.25258000  0.03300000  0.23748000  1.0
  H  H144  1  0.24897000  0.04848000  0.19428000  1.0
  H  H145  1  0.26179000  0.09631000  0.18377000  1.0
  H  H146  1  0.20457000  0.24684000  0.28235000  1.0
  H  H147  1  0.65053000  0.71634000  0.29125000  1.0
  H  H148  1  0.69780000  0.64099000  0.29983000  1.0
  H  H149  1  0.70805000  0.70579000  0.35470000  1.0
  H  H150  1  0.72025000  0.65949000  0.33889000  1.0
  H  H151  1  0.64834000  0.69321000  0.24354000  1.0
  H  H152  1  0.68409000  0.69923000  0.25294000  1.0
  H  H153  1  0.61434000  0.63730000  0.20584000  1.0
  H  H154  1  0.61926000  0.67453000  0.20487000  1.0
  H  H155  1  0.70062000  0.61829000  0.14811000  1.0
  H  H156  1  0.62061000  0.65572000  0.23385000  1.0
  H  H157  1  0.73430000  0.61891000  0.16326000  1.0
  H  H158  1  0.70889000  0.59140000  0.16974000  1.0
  H  H159  1  0.75144000  0.66533000  0.24233000  1.0
  H  H160  1  0.72450000  0.68148000  0.25964000  1.0
  H  H161  1  0.73019000  0.64525000  0.26364000  1.0
  H  H162  1  0.79998000  0.65352000  0.16475000  1.0
  H  H163  1  0.65975000  0.63701000  0.14901000  1.0
  H  H164  1  0.74575000  0.60060000  0.20232000  1.0
  H  H165  1  0.75209000  0.61722000  0.23161000  1.0
  H  H166  1  0.79374000  0.59409000  0.22337000  1.0
  H  H167  1  0.62961000  0.64404000  0.16686000  1.0
  H  H168  1  0.60778000  0.61699000  0.12915000  1.0
  H  H169  1  0.86609000  0.59330000  0.17337000  1.0
  H  H170  1  0.63627000  0.54967000  0.08170000  1.0
  H  H171  1  0.66831000  0.53409000  0.11549000  1.0
  H  H172  1  0.67019000  0.55895000  0.15615000  1.0
  H  H173  1  0.84586000  0.63274000  0.15138000  1.0
  H  H174  1  0.35691000  0.64874000  0.72710000  1.0
  H  H175  1  0.27335000  0.68338000  0.71264000  1.0
  H  H176  1  0.29157000  0.65004000  0.78438000  1.0
  H  H177  1  0.25834000  0.67286000  0.75547000  1.0
  H  H178  1  0.32860000  0.64916000  0.65997000  1.0
  H  H179  1  0.31247000  0.62983000  0.68273000  1.0
  H  H180  1  0.30955000  0.72182000  0.64286000  1.0
  H  H181  1  0.31794000  0.69298000  0.62223000  1.0
  H  H182  1  0.20405000  0.71741000  0.63797000  1.0
  H  H183  1  0.33080000  0.69494000  0.65391000  1.0
  H  H184  1  0.19344000  0.68617000  0.62086000  1.0
  H  H185  1  0.18624000  0.69144000  0.65398000  1.0
  H  H186  1  0.26396000  0.60323000  0.67507000  1.0
  H  H187  1  0.27221000  0.62470000  0.70233000  1.0
  H  H188  1  0.23624000  0.61812000  0.69459000  1.0
  H  H189  1  0.22567000  0.62920000  0.61010000  1.0
  H  H190  1  0.23799000  0.71762000  0.60826000  1.0
  H  H191  1  0.18490000  0.64639000  0.64872000  1.0
  H  H192  1  0.19599000  0.64042000  0.67948000  1.0
  H  H193  1  0.16879000  0.57241000  0.64659000  1.0
  H  H194  1  0.27601000  0.71865000  0.60874000  1.0
  H  H195  1  0.26690000  0.76500000  0.59146000  1.0
  H  H196  1  0.16935000  0.57628000  0.56607000  1.0
  H  H197  1  0.20342000  0.82915000  0.60155000  1.0
  H  H198  1  0.19151000  0.81073000  0.64246000  1.0
  H  H199  1  0.21712000  0.77028000  0.65869000  1.0
  H  H200  1  0.20699000  0.61267000  0.56900000  1.0
  H  H201  1  0.87934000  0.35345000  0.62000000  1.0
  H  H202  1  0.85833000  0.42455000  0.55695000  1.0
  H  H203  1  0.82383000  0.38663000  0.56263000  1.0
  H  H204  1  0.91415000  0.39136000  0.61410000  1.0
  H  H205  1  0.78783000  0.29708000  0.56264000  1.0
  H  H206  1  0.82585000  0.33161000  0.55714000  1.0
  H  H207  1  0.78405000  0.31912000  0.64114000  1.0
  H  H208  1  0.78433000  0.37483000  0.64616000  1.0
  H  H209  1  0.80874000  0.39370000  0.62566000  1.0
  H  H210  1  0.81538000  0.39309000  0.65867000  1.0
  H  H211  1  0.04115000  0.35021000  0.26677000  1.0
  H  H212  1  0.07656000  0.44693000  0.26186000  1.0
  H  H213  1  0.11050000  0.40901000  0.25605000  1.0
  H  H214  1  0.00716000  0.38800000  0.27266000  1.0
  H  H215  1  0.16468000  0.33333333  0.27997000  1.0
  H  H216  1  0.12954000  0.37016000  0.28546000  1.0
  H  H217  1  0.10933000  0.29454000  0.22354000  1.0
  H  H218  1  0.09102000  0.33518000  0.19169000  1.0
  H  H219  1  0.08008000  0.36784000  0.20653000  1.0
  H  H220  1  0.05383000  0.34541000  0.19152000  1.0
  H  H221  1  0.90111000  0.52307000  0.28120000  1.0
  H  H222  1  0.88055000  0.42745000  0.25055000  1.0
  H  H223  1  0.86065000  0.46631000  0.22775000  1.0
  H  H224  1  0.91990000  0.48413000  0.30457000  1.0
  H  H225  1  0.83214000  0.58152000  0.25033000  1.0
  H  H226  1  0.85208000  0.54222000  0.27211000  1.0
  H  H227  1  0.85818000  0.54553000  0.17977000  1.0
  H  H228  1  0.91538000  0.52975000  0.18610000  1.0
  H  H229  1  0.92380000  0.49375000  0.18568000  1.0
  H  H230  1  0.92390000  0.51186000  0.21516000  1.0
  H  H231  1  0.11023000  0.45334000  0.61283000  1.0
  H  H232  1  0.00718000  0.47373000  0.59392000  1.0
  H  H233  1  0.04332000  0.51078000  0.59311000  1.0
  H  H234  1  0.07403000  0.41619000  0.61438000  1.0
  H  H235  1  0.11578000  0.56895000  0.63209000  1.0
  H  H236  1  0.07914000  0.53207000  0.63045000  1.0
  H  H237  1  0.16578000  0.52519000  0.57682000  1.0
  H  H238  1  0.12796000  0.50685000  0.53916000  1.0
  H  H239  1  0.09333000  0.49230000  0.54938000  1.0
  H  H240  1  0.12015000  0.47070000  0.53547000  1.0
  H  H241  1  0.41762000  0.64232000  0.84859000  1.0
  H  H242  1  0.44555000  0.54384000  0.84347000  1.0
  H  H243  1  0.40843000  0.56082000  0.81493000  1.0
  H  H244  1  0.45321000  0.62466000  0.87834000  1.0
  H  H245  1  0.33234000  0.65819000  0.80885000  1.0
  H  H246  1  0.36628000  0.63850000  0.83835000  1.0
  H  H247  1  0.37031000  0.61043000  0.74887000  1.0
  H  H248  1  0.44493000  0.61742000  0.78505000  1.0
  H  H249  1  0.42953000  0.61955000  0.75335000  1.0
  H  H250  1  0.45234000  0.59145000  0.76183000  1.0
  H  H251  1  0.54901000  0.57191000  0.00219000  1.0
  H  H252  1  0.48210000  0.65113000  0.00810000  1.0
  H  H253  1  0.51879000  0.64489000  0.04091000  1.0
  H  H254  1  0.51307000  0.57840000  0.96923000  1.0
  H  H255  1  0.56302000  0.59945000  0.10752000  1.0
  H  H256  1  0.52812000  0.60892000  0.07414000  1.0
  H  H257  1  0.63008000  0.58835000  0.05297000  1.0
  H  H258  1  0.61420000  0.62500000  0.98854000  1.0
  H  H259  1  0.62571000  0.63201000  0.02016000  1.0
  H  H260  1  0.58893000  0.64045000  0.00952000  1.0
  H  H261  1  0.39722000  0.30184000  0.01980000  1.0
  H  H262  1  0.48264000  0.24366000  0.00184000  1.0
  H  H263  1  0.44436000  0.22609000  0.02862000  1.0
  H  H264  1  0.43558000  0.31945000  0.99307000  1.0
  H  H265  1  0.36129000  0.27267000  0.09665000  1.0
  H  H266  1  0.39707000  0.28920000  0.06709000  1.0
  H  H267  1  0.35265000  0.19624000  0.05427000  1.0
  H  H268  1  0.34735000  0.20973000  0.00427000  1.0
  H  H269  1  0.37619000  0.20151000  0.98343000  1.0
  H  H270  1  0.37215000  0.23669000  0.99349000  1.0
  H  H271  1  0.48269000  0.20600000  0.83224000  1.0
  H  H272  1  0.50233000  0.29143000  0.88251000  1.0
  H  H273  1  0.53721000  0.27629000  0.85166000  1.0
  H  H274  1  0.44759000  0.22094000  0.86344000  1.0
  H  H275  1  0.56952000  0.17463000  0.79997000  1.0
  H  H276  1  0.53605000  0.18952000  0.83236000  1.0
  H  H277  1  0.56982000  0.25665000  0.77000000  1.0
  H  H278  1  0.49017000  0.26565000  0.79370000  1.0
  H  H279  1  0.51284000  0.27332000  0.76677000  1.0
  H  H280  1  0.50043000  0.30042000  0.78706000  1.0
  H  H281  1  0.61765000  0.78954000  0.40070000  1.0
  H  H282  1  0.66177000  0.88175000  0.38741000  1.0
  H  H283  1  0.67182000  0.84380000  0.35815000  1.0
  H  H284  1  0.60776000  0.82736000  0.43014000  1.0
  H  H285  1  0.71374000  0.75555000  0.34318000  1.0
  H  H286  1  0.69947000  0.79740000  0.36578000  1.0
  H  H287  1  0.62377000  0.73453000  0.32932000  1.0
  H  H288  1  0.57051000  0.79877000  0.33404000  1.0
  H  H289  1  0.59632000  0.78300000  0.31371000  1.0
  H  H290  1  0.60561000  0.81452000  0.33179000  1.0
  H  H291  1  0.64460000  0.98433000  0.50899000  1.0
  H  H292  1  0.65137000  0.03717000  0.43080000  1.0
  H  H293  1  0.64568000  0.06183000  0.47075000  1.0
  H  H294  1  0.64976000  0.95954000  0.46905000  1.0
  H  H295  1  0.60049000  0.08732000  0.54617000  1.0
  H  H296  1  0.60417000  0.06199000  0.50657000  1.0
  H  H297  1  0.67843000  0.04823000  0.57301000  1.0
  H  H298  1  0.71850000  0.04884000  0.53600000  1.0
  H  H299  1  0.70486000  0.04112000  0.50423000  1.0
  H  H300  1  0.72803000  0.01750000  0.51997000  1.0
  H  H301  1  0.27889000  0.07315000  0.37165000  1.0
  H  H302  1  0.27233000  0.97231000  0.38533000  1.0
  H  H303  1  0.27246000  0.98953000  0.34272000  1.0
  H  H304  1  0.27855000  0.05602000  0.41432000  1.0
  H  H305  1  0.23019000  0.03791000  0.27680000  1.0
  H  H306  1  0.23459000  0.02060000  0.31904000  1.0
  H  H307  1  0.30906000  0.08561000  0.28808000  1.0
  H  H308  1  0.34935000  0.05297000  0.31071000  1.0
  H  H309  1  0.33605000  0.03090000  0.33564000  1.0
  H  H310  1  0.35996000  0.05942000  0.34263000  1.0
  H  H311  1  0.24535000  0.89056000  0.51425000  1.0
  H  H312  1  0.30128000  0.84547000  0.44659000  1.0
  H  H313  1  0.29002000  0.81976000  0.48432000  1.0
  H  H314  1  0.25689000  0.91637000  0.47701000  1.0
  H  H315  1  0.28986000  0.80368000  0.57264000  1.0
  H  H316  1  0.30260000  0.82682000  0.53409000  1.0
  H  H317  1  0.19937000  0.81999000  0.55814000  1.0
  H  H318  1  0.18788000  0.80785000  0.50827000  1.0
  H  H319  1  0.21516000  0.81963000  0.48614000  1.0
  H  H320  1  0.18027000  0.83536000  0.48738000  1.0
  H  H321  1  0.01652000  0.36891000  0.48524000  1.0
  H  H322  1  0.99592000  0.44989000  0.46678000  1.0
  H  H323  1  0.01892000  0.45787000  0.40689000  1.0
  H  H324  1  0.00722000  0.37286000  0.39523000  1.0
  H  H325  1  0.44640000  0.41939000  0.94758000  1.0
  H  H326  1  0.38314000  0.37380000  0.98442000  1.0
  H  H327  1  0.37679000  0.49301000  0.96983000  1.0
  H  H328  1  0.46273000  0.46663000  0.97389000  1.0
  H  H329  1  0.41760000  0.99909000  0.45688000  1.0
  H  H330  1  0.42272000  0.94963000  0.39218000  1.0
  H  H331  1  0.51636000  0.98295000  0.37573000  1.0
  H  H332  1  0.49631000  0.95501000  0.44693000  1.0
  C  C333  1  0.96389000  0.43020000  0.59229000  1.0
  C  C334  1  0.99142000  0.41877000  0.58669000  1.0
  C  C335  1  0.94016000  0.42620000  0.57520000  1.0
  C  C336  1  0.90945000  0.43497000  0.58239000  1.0
  C  C337  1  0.97220000  0.40140000  0.54622000  1.0
  C  C338  1  0.94486000  0.41316000  0.55154000  1.0
  C  C339  1  0.99595000  0.40595000  0.56298000  1.0
  C  C340  1  0.92034000  0.41061000  0.53227000  1.0
  C  C341  1  0.01571000  0.41858000  0.60646000  1.0
  C  C342  1  0.95944000  0.44669000  0.61642000  1.0
  C  C343  1  0.02587000  0.39543000  0.55618000  1.0
  C  C344  1  0.97602000  0.38318000  0.52288000  1.0
  C  C345  1  0.96676000  0.43267000  0.28369000  1.0
  C  C346  1  0.99564000  0.44029000  0.29086000  1.0
  C  C347  1  0.94468000  0.43183000  0.30201000  1.0
  C  C348  1  0.91278000  0.42862000  0.29390000  1.0
  C  C349  1  0.98049000  0.44525000  0.33455000  1.0
  C  C350  1  0.95220000  0.43590000  0.32768000  1.0
  C  C351  1  0.00270000  0.44535000  0.31651000  1.0
  C  C352  1  0.92978000  0.43076000  0.34765000  1.0
  C  C353  1  0.01878000  0.44463000  0.27106000  1.0
  C  C354  1  0.95926000  0.42694000  0.25626000  1.0
  C  C355  1  0.03367000  0.45262000  0.32453000  1.0
  C  C356  1  0.98687000  0.45590000  0.36113000  1.0
  C  C357  1  0.47711000  0.59217000  0.92559000  1.0
  C  C358  1  0.46394000  0.59529000  0.94933000  1.0
  C  C359  1  0.46583000  0.57240000  0.90786000  1.0
  C  C360  1  0.47558000  0.57271000  0.88056000  1.0
  C  C361  1  0.43179000  0.55579000  0.93941000  1.0
  C  C362  1  0.44426000  0.55316000  0.91536000  1.0
  C  C363  1  0.44293000  0.57571000  0.95690000  1.0
  C  C364  1  0.43374000  0.53017000  0.89757000  1.0
  C  C365  1  0.47135000  0.62025000  0.96627000  1.0
  C  C366  1  0.50343000  0.60967000  0.91923000  1.0
  C  C367  1  0.43147000  0.57668000  0.98342000  1.0
  C  C368  1  0.40657000  0.53701000  0.94658000  1.0
  C  C369  1  0.47019000  0.28162000  0.93583000  1.0
  C  C370  1  0.45795000  0.28900000  0.91237000  1.0
  C  C371  1  0.47721000  0.30252000  0.95409000  1.0
  C  C372  1  0.48669000  0.29463000  0.98056000  1.0
  C  C373  1  0.45912000  0.33784000  0.92556000  1.0
  C  C374  1  0.47370000  0.33076000  0.94804000  1.0
  C  C375  1  0.45416000  0.31727000  0.90672000  1.0
  C  C376  1  0.48576000  0.35330000  0.96555000  1.0
  C  C377  1  0.44844000  0.26661000  0.89331000  1.0
  C  C378  1  0.47462000  0.25129000  0.94152000  1.0
  C  C379  1  0.44469000  0.32564000  0.88064000  1.0
  C  C380  1  0.44848000  0.36732000  0.92188000  1.0
  C  C381  1  0.64410000  0.92973000  0.42117000  1.0
  C  C382  1  0.63560000  0.95736000  0.41663000  1.0
  C  C383  1  0.62295000  0.90813000  0.41998000  1.0
  C  C384  1  0.62955000  0.87992000  0.43084000  1.0
  C  C385  1  0.58868000  0.93987000  0.40037000  1.0
  C  C386  1  0.59526000  0.91310000  0.40902000  1.0
  C  C387  1  0.60740000  0.96243000  0.40678000  1.0
  C  C388  1  0.57368000  0.88945000  0.40450000  1.0
  C  C389  1  0.65650000  0.98162000  0.42213000  1.0
  C  C390  1  0.67576000  0.92360000  0.42696000  1.0
  C  C391  1  0.59837000  0.99172000  0.40084000  1.0
  C  C392  1  0.56151000  0.94457000  0.38448000  1.0
  C  C393  1  0.27908000  0.95069000  0.43584000  1.0
  C  C394  1  0.29154000  0.97772000  0.43557000  1.0
  C  C395  1  0.29731000  0.92739000  0.43915000  1.0
  C  C396  1  0.28558000  0.89803000  0.43471000  1.0
  C  C397  1  0.33809000  0.95884000  0.44964000  1.0
  C  C398  1  0.32676000  0.93156000  0.44678000  1.0
  C  C399  1  0.32149000  0.98151000  0.44140000  1.0
  C  C400  1  0.34555000  0.90722000  0.45408000  1.0
  C  C401  1  0.27290000  0.00292000  0.42974000  1.0
  C  C402  1  0.24631000  0.94731000  0.43310000  1.0
  C  C403  1  0.33506000  0.01027000  0.44126000  1.0
  C  C404  1  0.36812000  0.96394000  0.46132000  1.0
  C  C405  1  0.59276000  0.20546000  0.76281000  1.0
  C  C406  1  0.58887000  0.21373000  0.73792000  1.0
  C  C407  1  0.60813000  0.20529000  0.71933000  1.0
  C  C408  1  0.63094000  0.18757000  0.72546000  1.0
  C  C409  1  0.63505000  0.17936000  0.75011000  1.0
  C  C410  1  0.61616000  0.18827000  0.76871000  1.0
  C  C411  1  0.62522000  0.23005000  0.68612000  1.0
  C  C412  1  0.64375000  0.21477000  0.66689000  1.0
  C  C413  1  0.63030000  0.20214000  0.64531000  1.0
  C  C414  1  0.59749000  0.20319000  0.64178000  1.0
  C  C415  1  0.64734000  0.18678000  0.62805000  1.0
  C  C416  1  0.67774000  0.18525000  0.63192000  1.0
  C  C417  1  0.67452000  0.21479000  0.66935000  1.0
  C  C418  1  0.68932000  0.22801000  0.69222000  1.0
  C  C419  1  0.69578000  0.16558000  0.61633000  1.0
  C  C420  1  0.73170000  0.25197000  0.62978000  1.0
  C  C421  1  0.71002000  0.25040000  0.61095000  1.0
  C  C422  1  0.71258000  0.26585000  0.58938000  1.0
  C  C423  1  0.75526000  0.27012000  0.62691000  1.0
  C  C424  1  0.63321000  0.17350000  0.60471000  1.0
  C  C425  1  0.62462000  0.12748000  0.61052000  1.0
  C  C426  1  0.62691000  0.11289000  0.58769000  1.0
  C  C427  1  0.75795000  0.28591000  0.60521000  1.0
  C  C428  1  0.64270000  0.08780000  0.63238000  1.0
  C  C429  1  0.63224000  0.11471000  0.63283000  1.0
  C  C430  1  0.69141000  0.20276000  0.65013000  1.0
  C  C431  1  0.63720000  0.08560000  0.58700000  1.0
  C  C432  1  0.72380000  0.20943000  0.64834000  1.0
  C  C433  1  0.64510000  0.07327000  0.60969000  1.0
  C  C434  1  0.73633000  0.28346000  0.58647000  1.0
  C  C435  1  0.33309000  0.22272000  0.09610000  1.0
  C  C436  1  0.33824000  0.22636000  0.12197000  1.0
  C  C437  1  0.31871000  0.21583000  0.13931000  1.0
  C  C438  1  0.29428000  0.20072000  0.13069000  1.0
  C  C439  1  0.28874000  0.19745000  0.10509000  1.0
  C  C440  1  0.30795000  0.20839000  0.08786000  1.0
  C  C441  1  0.30646000  0.23579000  0.17711000  1.0
  C  C442  1  0.28136000  0.21974000  0.18854000  1.0
  C  C443  1  0.28711000  0.19840000  0.20585000  1.0
  C  C444  1  0.31778000  0.19267000  0.21514000  1.0
  C  C445  1  0.26399000  0.18144000  0.21419000  1.0
  C  C446  1  0.23519000  0.18686000  0.20621000  1.0
  C  C447  1  0.25211000  0.22613000  0.18225000  1.0
  C  C448  1  0.24554000  0.24820000  0.16325000  1.0
  C  C449  1  0.21090000  0.16637000  0.21108000  1.0
  C  C450  1  0.18918000  0.25836000  0.22086000  1.0
  C  C451  1  0.20234000  0.24691000  0.24219000  1.0
  C  C452  1  0.19451000  0.25585000  0.26609000  1.0
  C  C453  1  0.16896000  0.27949000  0.22407000  1.0
  C  C454  1  0.27037000  0.15639000  0.23013000  1.0
  C  C455  1  0.27189000  0.10896000  0.22172000  1.0
  C  C456  1  0.27437000  0.10010000  0.24669000  1.0
  C  C457  1  0.16104000  0.28866000  0.24812000  1.0
  C  C458  1  0.25584000  0.06293000  0.20893000  1.0
  C  C459  1  0.26306000  0.08998000  0.20304000  1.0
  C  C460  1  0.22909000  0.21168000  0.19372000  1.0
  C  C461  1  0.26705000  0.07273000  0.25282000  1.0
  C  C462  1  0.19804000  0.22235000  0.19236000  1.0
  C  C463  1  0.25779000  0.05431000  0.23359000  1.0
  C  C464  1  0.17397000  0.27656000  0.26909000  1.0
  C  C465  1  0.67847000  0.71465000  0.32407000  1.0
  C  C466  1  0.66608000  0.70420000  0.30156000  1.0
  C  C467  1  0.67374000  0.67785000  0.29232000  1.0
  C  C468  1  0.69267000  0.66165000  0.30629000  1.0
  C  C469  1  0.70532000  0.67205000  0.32839000  1.0
  C  C470  1  0.69842000  0.69842000  0.33719000  1.0
  C  C471  1  0.66810000  0.68213000  0.24955000  1.0
  C  C472  1  0.67878000  0.66256000  0.22907000  1.0
  C  C473  1  0.65904000  0.65202000  0.21050000  1.0
  C  C474  1  0.62660000  0.65530000  0.21384000  1.0
  C  C475  1  0.66977000  0.63853000  0.18874000  1.0
  C  C476  1  0.69923000  0.63018000  0.18831000  1.0
  C  C477  1  0.70813000  0.65380000  0.22879000  1.0
  C  C478  1  0.72938000  0.66194000  0.24976000  1.0
  C  C479  1  0.71111000  0.61380000  0.16621000  1.0
  C  C480  1  0.79298000  0.62511000  0.19454000  1.0
  C  C481  1  0.80833000  0.63588000  0.17453000  1.0
  C  C482  1  0.83430000  0.62417000  0.16693000  1.0
  C  C483  1  0.80478000  0.60246000  0.20748000  1.0
  C  C484  1  0.64938000  0.63121000  0.16686000  1.0
  C  C485  1  0.64011000  0.59030000  0.14508000  1.0
  C  C486  1  0.62124000  0.59912000  0.12593000  1.0
  C  C487  1  0.83102000  0.59048000  0.19986000  1.0
  C  C488  1  0.65535000  0.55235000  0.11832000  1.0
  C  C489  1  0.65645000  0.56647000  0.14126000  1.0
  C  C490  1  0.71727000  0.63518000  0.20969000  1.0
  C  C491  1  0.61972000  0.58469000  0.10280000  1.0
  C  C492  1  0.74671000  0.62133000  0.21174000  1.0
  C  C493  1  0.63722000  0.56140000  0.09915000  1.0
  C  C494  1  0.84560000  0.60163000  0.17943000  1.0
  C  C495  1  0.32721000  0.64776000  0.75827000  1.0
  C  C496  1  0.33524000  0.65314000  0.73348000  1.0
  C  C497  1  0.31559000  0.66493000  0.71668000  1.0
  C  C498  1  0.28822000  0.67299000  0.72503000  1.0
  C  C499  1  0.27978000  0.66728000  0.74933000  1.0
  C  C500  1  0.29896000  0.65451000  0.76577000  1.0
  C  C501  1  0.31285000  0.65114000  0.67536000  1.0
  C  C502  1  0.28415000  0.66101000  0.66419000  1.0
  C  C503  1  0.28396000  0.68441000  0.64846000  1.0
  C  C504  1  0.31204000  0.69909000  0.64159000  1.0
  C  C505  1  0.25735000  0.69393000  0.63829000  1.0
  C  C506  1  0.23089000  0.68119000  0.64515000  1.0
  C  C507  1  0.25766000  0.64684000  0.66909000  1.0
  C  C508  1  0.25754000  0.62188000  0.68595000  1.0
  C  C509  1  0.20215000  0.69466000  0.63892000  1.0
  C  C510  1  0.19774000  0.60236000  0.63122000  1.0
  C  C511  1  0.20883000  0.61349000  0.60921000  1.0
  C  C512  1  0.19845000  0.60401000  0.58590000  1.0
  C  C513  1  0.17669000  0.58135000  0.62955000  1.0
  C  C514  1  0.25708000  0.71886000  0.62133000  1.0
  C  C515  1  0.24307000  0.76442000  0.62592000  1.0
  C  C516  1  0.25016000  0.77488000  0.60232000  1.0
  C  C517  1  0.16608000  0.57178000  0.60616000  1.0
  C  C518  1  0.20771000  0.80063000  0.63118000  1.0
  C  C519  1  0.22217000  0.77775000  0.64031000  1.0
  C  C520  1  0.23133000  0.65572000  0.65779000  1.0
  C  C521  1  0.23583000  0.79822000  0.59305000  1.0
  C  C522  1  0.20349000  0.63848000  0.65992000  1.0
  C  C523  1  0.21446000  0.81086000  0.60779000  1.0
  C  C524  1  0.17723000  0.58324000  0.58432000  1.0
  C  C525  1  0.88910000  0.41058000  0.58480000  1.0
  C  C526  1  0.86336000  0.40892000  0.57049000  1.0
  C  C527  1  0.84366000  0.38728000  0.57373000  1.0
  C  C528  1  0.84901000  0.36720000  0.59172000  1.0
  C  C529  1  0.87473000  0.36879000  0.60607000  1.0
  C  C530  1  0.89463000  0.39030000  0.60262000  1.0
  C  C531  1  0.78268000  0.30552000  0.60230000  1.0
  C  C532  1  0.79507000  0.30931000  0.57874000  1.0
  C  C533  1  0.81692000  0.32900000  0.57557000  1.0
  C  C534  1  0.82712000  0.34526000  0.59588000  1.0
  C  C535  1  0.81515000  0.34138000  0.61971000  1.0
  C  C536  1  0.79334000  0.32138000  0.62280000  1.0
  C  C537  1  0.80732000  0.38050000  0.64243000  1.0
  C  C538  1  0.03928000  0.42056000  0.26812000  1.0
  C  C539  1  0.06860000  0.42590000  0.26312000  1.0
  C  C540  1  0.08800000  0.40426000  0.25983000  1.0
  C  C541  1  0.07840000  0.37676000  0.26100000  1.0
  C  C542  1  0.04903000  0.37127000  0.26560000  1.0
  C  C543  1  0.02961000  0.39295000  0.26906000  1.0
  C  C544  1  0.13968000  0.31109000  0.25132000  1.0
  C  C545  1  0.14492000  0.33265000  0.26878000  1.0
  C  C546  1  0.12496000  0.35385000  0.27178000  1.0
  C  C547  1  0.09919000  0.35394000  0.25749000  1.0
  C  C548  1  0.09388000  0.33249000  0.23970000  1.0
  C  C549  1  0.11397000  0.31113000  0.23693000  1.0
  C  C550  1  0.07409000  0.34575000  0.20293000  1.0
  C  C551  1  0.90240000  0.45281000  0.27891000  1.0
  C  C552  1  0.88541000  0.44826000  0.25722000  1.0
  C  C553  1  0.87416000  0.47049000  0.24413000  1.0
  C  C554  1  0.87972000  0.49775000  0.25246000  1.0
  C  C555  1  0.89649000  0.50229000  0.27432000  1.0
  C  C556  1  0.90749000  0.48005000  0.28755000  1.0
  C  C557  1  0.84343000  0.56660000  0.21327000  1.0
  C  C558  1  0.84208000  0.56520000  0.23943000  1.0
  C  C559  1  0.85388000  0.54286000  0.25197000  1.0
  C  C560  1  0.86759000  0.52145000  0.23872000  1.0
  C  C561  1  0.86964000  0.52305000  0.21247000  1.0
  C  C562  1  0.85710000  0.54520000  0.19997000  1.0
  C  C563  1  0.91279000  0.51021000  0.19654000  1.0
  C  C564  1  0.03773000  0.44182000  0.60407000  1.0
  C  C565  1  0.02950000  0.46886000  0.59815000  1.0
  C  C566  1  0.05017000  0.49013000  0.59763000  1.0
  C  C567  1  0.07946000  0.48476000  0.60275000  1.0
  C  C568  1  0.08778000  0.45785000  0.60852000  1.0
  C  C569  1  0.06708000  0.43668000  0.60941000  1.0
  C  C570  1  0.14356000  0.54978000  0.60461000  1.0
  C  C571  1  0.11886000  0.55141000  0.61958000  1.0
  C  C572  1  0.09784000  0.53047000  0.61851000  1.0
  C  C573  1  0.10125000  0.50735000  0.60266000  1.0
  C  C574  1  0.12573000  0.50581000  0.58720000  1.0
  C  C575  1  0.14676000  0.52693000  0.58838000  1.0
  C  C576  1  0.11713000  0.48892000  0.54801000  1.0
  C  C577  1  0.45198000  0.58288000  0.86330000  1.0
  C  C578  1  0.43925000  0.56526000  0.84500000  1.0
  C  C579  1  0.41833000  0.57512000  0.82839000  1.0
  C  C580  1  0.41036000  0.60306000  0.82916000  1.0
  C  C581  1  0.42307000  0.62064000  0.84758000  1.0
  C  C582  1  0.44353000  0.61062000  0.86454000  1.0
  C  C583  1  0.34835000  0.63582000  0.77637000  1.0
  C  C584  1  0.34787000  0.64344000  0.80186000  1.0
  C  C585  1  0.36772000  0.63249000  0.81880000  1.0
  C  C586  1  0.38911000  0.61404000  0.81074000  1.0
  C  C587  1  0.39026000  0.60684000  0.78501000  1.0
  C  C588  1  0.36953000  0.61712000  0.76827000  1.0
  C  C589  1  0.43534000  0.60552000  0.76885000  1.0
  C  C590  1  0.49430000  0.61517000  0.98621000  1.0
  C  C591  1  0.49662000  0.63376000  0.00665000  1.0
  C  C592  1  0.51753000  0.63017000  0.02541000  1.0
  C  C593  1  0.53682000  0.60800000  0.02403000  1.0
  C  C594  1  0.53472000  0.58946000  0.00354000  1.0
  C  C595  1  0.51386000  0.59308000  0.98472000  1.0
  C  C596  1  0.59918000  0.59298000  0.08278000  1.0
  C  C597  1  0.57040000  0.59952000  0.08840000  1.0
  C  C598  1  0.55042000  0.60489000  0.06929000  1.0
  C  C599  1  0.55880000  0.60399000  0.04414000  1.0
  C  C600  1  0.58808000  0.59878000  0.03847000  1.0
  C  C601  1  0.60786000  0.59292000  0.05772000  1.0
  C  C602  1  0.60686000  0.62527000  0.00819000  1.0
  C  C603  1  0.46187000  0.28276000  0.99514000  1.0
  C  C604  1  0.46387000  0.25634000  0.00531000  1.0
  C  C605  1  0.44199000  0.24629000  0.02058000  1.0
  C  C606  1  0.41780000  0.26257000  0.02614000  1.0
  C  C607  1  0.41569000  0.28892000  0.01584000  1.0
  C  C608  1  0.43750000  0.29890000  0.00045000  1.0
  C  C609  1  0.35423000  0.23316000  0.07776000  1.0
  C  C610  1  0.36702000  0.25944000  0.08097000  1.0
  C  C611  1  0.38727000  0.26900000  0.06393000  1.0
  C  C612  1  0.39530000  0.25248000  0.04335000  1.0
  C  C613  1  0.38207000  0.22628000  0.03970000  1.0
  C  C614  1  0.36195000  0.21672000  0.05701000  1.0
  C  C615  1  0.37022000  0.21489000  0.99958000  1.0
  C  C616  1  0.47206000  0.25719000  0.87567000  1.0
  C  C617  1  0.49768000  0.27261000  0.87194000  1.0
  C  C618  1  0.51769000  0.26408000  0.85409000  1.0
  C  C619  1  0.51253000  0.24011000  0.83945000  1.0
  C  C620  1  0.48728000  0.22449000  0.84338000  1.0
  C  C621  1  0.46723000  0.23303000  0.86119000  1.0
  C  C622  1  0.57229000  0.21451000  0.78248000  1.0
  C  C623  1  0.56248000  0.19588000  0.80035000  1.0
  C  C624  1  0.54311000  0.20432000  0.81875000  1.0
  C  C625  1  0.53315000  0.23159000  0.81976000  1.0
  C  C626  1  0.54259000  0.25035000  0.80163000  1.0
  C  C627  1  0.56232000  0.24180000  0.78340000  1.0
  C  C628  1  0.50811000  0.27881000  0.78662000  1.0
  C  C629  1  0.63379000  0.85759000  0.41105000  1.0
  C  C630  1  0.65181000  0.86183000  0.39045000  1.0
  C  C631  1  0.65755000  0.84015000  0.37366000  1.0
  C  C632  1  0.64529000  0.81388000  0.37708000  1.0
  C  C633  1  0.62692000  0.80975000  0.39738000  1.0
  C  C634  1  0.62138000  0.83133000  0.41426000  1.0
  C  C635  1  0.66982000  0.74176000  0.33473000  1.0
  C  C636  1  0.69089000  0.76013000  0.34472000  1.0
  C  C637  1  0.68275000  0.78415000  0.35747000  1.0
  C  C638  1  0.65334000  0.79024000  0.36069000  1.0
  C  C639  1  0.63204000  0.77264000  0.34954000  1.0
  C  C640  1  0.64040000  0.74849000  0.33677000  1.0
  C  C641  1  0.59388000  0.79429000  0.33191000  1.0
  C  C642  1  0.65054000  0.99639000  0.44670000  1.0
  C  C643  1  0.64945000  0.02537000  0.44769000  1.0
  C  C644  1  0.64622000  0.03948000  0.47048000  1.0
  C  C645  1  0.64474000  0.02491000  0.49282000  1.0
  C  C646  1  0.64583000  0.99597000  0.49196000  1.0
  C  C647  1  0.64869000  0.98182000  0.46910000  1.0
  C  C648  1  0.63925000  0.06994000  0.56282000  1.0
  C  C649  1  0.61856000  0.07352000  0.54362000  1.0
  C  C650  1  0.62051000  0.05889000  0.52096000  1.0
  C  C651  1  0.64296000  0.04009000  0.51703000  1.0
  C  C652  1  0.66399000  0.03647000  0.53605000  1.0
  C  C653  1  0.66189000  0.05119000  0.55878000  1.0
  C  C654  1  0.71021000  0.03238000  0.52282000  1.0
  C  C655  1  0.27591000  0.01280000  0.40323000  1.0
  C  C656  1  0.27409000  0.99432000  0.38265000  1.0
  C  C657  1  0.27408000  0.00416000  0.35827000  1.0
  C  C658  1  0.27590000  0.03263000  0.35398000  1.0
  C  C659  1  0.27796000  0.05108000  0.37448000  1.0
  C  C660  1  0.27772000  0.04127000  0.39884000  1.0
  C  C661  1  0.26936000  0.06306000  0.27900000  1.0
  C  C662  1  0.24863000  0.04456000  0.28822000  1.0
  C  C663  1  0.25111000  0.03462000  0.31243000  1.0
  C  C664  1  0.27425000  0.04307000  0.32815000  1.0
  C  C665  1  0.29527000  0.06159000  0.31910000  1.0
  C  C666  1  0.29254000  0.07164000  0.29475000  1.0
  C  C667  1  0.34165000  0.05243000  0.33035000  1.0
  C  C668  1  0.28009000  0.88299000  0.45879000  1.0
  C  C669  1  0.28931000  0.85561000  0.46136000  1.0
  C  C670  1  0.28292000  0.84092000  0.48287000  1.0
  C  C671  1  0.26667000  0.85319000  0.50199000  1.0
  C  C672  1  0.25763000  0.88058000  0.49958000  1.0
  C  C673  1  0.26427000  0.89534000  0.47823000  1.0
  C  C674  1  0.24359000  0.81020000  0.56859000  1.0
  C  C675  1  0.27264000  0.81182000  0.56108000  1.0
  C  C676  1  0.27999000  0.82516000  0.53907000  1.0
  C  C677  1  0.25849000  0.83731000  0.52422000  1.0
  C  C678  1  0.22919000  0.83472000  0.53104000  1.0
  C  C679  1  0.22200000  0.82142000  0.55313000  1.0
  C  C680  1  0.19757000  0.82610000  0.49901000  1.0
  C  C681  1  0.99667000  0.43033000  0.47615000  1.0
  C  C682  1  0.01278000  0.43796000  0.39873000  1.0
  C  C683  1  0.00672000  0.39496000  0.39279000  1.0
  C  C684  1  0.00719000  0.38935000  0.48544000  1.0
  C  C685  1  0.40034000  0.37955000  0.97195000  1.0
  C  C686  1  0.40016000  0.49210000  0.96822000  1.0
  C  C687  1  0.44368000  0.47881000  0.97019000  1.0
  C  C688  1  0.43242000  0.40269000  0.95345000  1.0
  C  C689  1  0.41554000  0.95849000  0.40972000  1.0
  C  C690  1  0.51702000  0.97209000  0.39324000  1.0
  C  C691  1  0.50696000  0.95788000  0.42926000  1.0
  C  C692  1  0.41304000  0.98357000  0.44244000  1.0
  N  N693  1  0.01304000  0.40887000  0.46874000  1.0
  N  N694  1  0.98835000  0.39883000  0.50242000  1.0
  N  N695  1  0.98135000  0.42440000  0.49667000  1.0
  N  N696  1  0.01862000  0.41357000  0.40904000  1.0
  N  N697  1  0.99818000  0.43413000  0.37699000  1.0
  N  N698  1  0.99400000  0.40728000  0.37317000  1.0
  N  N699  1  0.41283000  0.40481000  0.97170000  1.0
  N  N700  1  0.43192000  0.37703000  0.94338000  1.0
  N  N701  1  0.41161000  0.36246000  0.95453000  1.0
  N  N702  1  0.41653000  0.47118000  0.97619000  1.0
  N  N703  1  0.41686000  0.51159000  0.95793000  1.0
  N  N704  1  0.44417000  0.50345000  0.95894000  1.0
  N  N705  1  0.42926000  0.97942000  0.42211000  1.0
  N  N706  1  0.39023000  0.96607000  0.44210000  1.0
  N  N707  1  0.39169000  0.95007000  0.42181000  1.0
  N  N708  1  0.49765000  0.97520000  0.41153000  1.0
  N  N709  1  0.53739000  0.95389000  0.39985000  1.0
  N  N710  1  0.53118000  0.94462000  0.42230000  1.0
  O  O711  1  0.61241000  0.15336000  0.61128000  1.0
  O  O712  1  0.72942000  0.23809000  0.65217000  1.0
  O  O713  1  0.60277000  0.21271000  0.69489000  1.0
  O  O714  1  0.28043000  0.13502000  0.21420000  1.0
  O  O715  1  0.19724000  0.25134000  0.19665000  1.0
  O  O716  1  0.32567000  0.21777000  0.16453000  1.0
  O  O717  1  0.64118000  0.60307000  0.16846000  1.0
  O  O718  1  0.76793000  0.63888000  0.20152000  1.0
  O  O719  1  0.66121000  0.66648000  0.27079000  1.0
  O  O720  1  0.25813000  0.74301000  0.63664000  1.0
  O  O721  1  0.20862000  0.61016000  0.65458000  1.0
  O  O722  1  0.32442000  0.67090000  0.69280000  1.0
  O  O723  1  0.82479000  0.35690000  0.64018000  1.0
  O  O724  1  0.06876000  0.33185000  0.22532000  1.0
  O  O725  1  0.88334000  0.50271000  0.19872000  1.0
  O  O726  1  0.12975000  0.48326000  0.57147000  1.0
  O  O727  1  0.41134000  0.58939000  0.77596000  1.0
  O  O728  1  0.59740000  0.59844000  0.01405000  1.0
  O  O729  1  0.38932000  0.20947000  0.01964000  1.0
  O  O730  1  0.53318000  0.27733000  0.80189000  1.0
  O  O731  1  0.60291000  0.77814000  0.35216000  1.0
  O  O732  1  0.68639000  0.01809000  0.53279000  1.0
  O  O733  1  0.31826000  0.07047000  0.33413000  1.0
  O  O734  1  0.20744000  0.84614000  0.51669000  1.0
