# generated using pymatgen
data_Be2H35C51(N3O2)4
_symmetry_space_group_name_H-M   'P 1'
_cell_length_a   36.82820000
_cell_length_b   43.26870000
_cell_length_c   48.47710000
_cell_angle_alpha   90.00000000
_cell_angle_beta   90.00000000
_cell_angle_gamma   90.00000000
_symmetry_Int_Tables_number   1
_chemical_formula_structural   Be2H35C51(N3O2)4
_chemical_formula_sum   'Be16 H280 C408 N96 O64'
_cell_volume   77248.66302006
_cell_formula_units_Z   8
loop_
 _symmetry_equiv_pos_site_id
 _symmetry_equiv_pos_as_xyz
  1  'x, y, z'
loop_
 _atom_site_type_symbol
 _atom_site_label
 _atom_site_symmetry_multiplicity
 _atom_site_fract_x
 _atom_site_fract_y
 _atom_site_fract_z
 _atom_site_occupancy
  Be  Be0  1  0.64450000  0.12323000  0.96299000  1.0
  Be  Be1  1  0.62017000  0.20404000  0.99880000  1.0
  Be  Be2  1  0.64570000  0.18585000  0.94531000  1.0
  Be  Be3  1  0.61956000  0.14129000  0.01648000  1.0
  Be  Be4  1  0.12191000  0.84038000  0.02864000  1.0
  Be  Be5  1  0.15537000  0.77909000  0.96759000  1.0
  Be  Be6  1  0.16423000  0.78576000  0.02802000  1.0
  Be  Be7  1  0.11685000  0.83582000  0.96932000  1.0
  Be  Be8  1  0.66797000  0.63413000  0.48159000  1.0
  Be  Be9  1  0.65162000  0.72008000  0.51225000  1.0
  Be  Be10  1  0.66603000  0.69386000  0.45764000  1.0
  Be  Be11  1  0.65615000  0.66070000  0.53598000  1.0
  Be  Be12  1  0.14461000  0.34347000  0.50586000  1.0
  Be  Be13  1  0.14776000  0.25932000  0.46541000  1.0
  Be  Be14  1  0.14784000  0.28148000  0.52000000  1.0
  Be  Be15  1  0.14798000  0.31954000  0.44440000  1.0
  H  H16  1  0.06092000  0.67168000  0.65795000  1.0
  H  H17  1  0.07178000  0.62533000  0.70530000  1.0
  H  H18  1  0.10502000  0.63531000  0.67936000  1.0
  H  H19  1  0.06213000  0.61961000  0.64234000  1.0
  H  H20  1  0.01192000  0.59795000  0.68957000  1.0
  H  H21  1  0.00463000  0.59120000  0.65331000  1.0
  H  H22  1  0.00521000  0.64744000  0.64395000  1.0
  H  H23  1  0.01071000  0.65616000  0.70705000  1.0
  H  H24  1  0.00326000  0.68607000  0.68176000  1.0
  H  H25  1  0.53189000  0.33229000  0.29917000  1.0
  H  H26  1  0.53516000  0.37639000  0.24922000  1.0
  H  H27  1  0.57129000  0.36891000  0.27345000  1.0
  H  H28  1  0.53160000  0.38516000  0.31231000  1.0
  H  H29  1  0.47492000  0.40190000  0.26799000  1.0
  H  H30  1  0.47217000  0.41073000  0.30428000  1.0
  H  H31  1  0.47738000  0.35515000  0.31593000  1.0
  H  H32  1  0.47535000  0.34308000  0.25315000  1.0
  H  H33  1  0.47287000  0.31425000  0.27998000  1.0
  H  H34  1  0.95863000  0.60220000  0.26492000  1.0
  H  H35  1  0.03753000  0.62605000  0.26934000  1.0
  H  H36  1  0.02322000  0.58656000  0.26474000  1.0
  H  H37  1  0.98827000  0.58903000  0.30860000  1.0
  H  H38  1  0.01762000  0.65564000  0.31498000  1.0
  H  H39  1  0.99268000  0.63367000  0.34024000  1.0
  H  H40  1  0.94104000  0.62847000  0.30696000  1.0
  H  H41  1  0.98716000  0.66894000  0.26789000  1.0
  H  H42  1  0.94033000  0.65774000  0.26286000  1.0
  H  H43  1  0.46453000  0.38240000  0.73878000  1.0
  H  H44  1  0.48896000  0.35416000  0.68349000  1.0
  H  H45  1  0.51869000  0.36415000  0.71170000  1.0
  H  H46  1  0.49877000  0.41891000  0.70952000  1.0
  H  H47  1  0.45695000  0.39960000  0.65715000  1.0
  H  H48  1  0.46209000  0.43844000  0.66985000  1.0
  H  H49  1  0.43169000  0.42518000  0.71361000  1.0
  H  H50  1  0.41965000  0.36064000  0.68866000  1.0
  H  H51  1  0.40184000  0.37467000  0.72110000  1.0
  H  H52  1  0.95293000  0.11953000  0.23288000  1.0
  H  H53  1  0.98148000  0.05255000  0.22662000  1.0
  H  H54  1  0.00896000  0.08647000  0.23188000  1.0
  H  H55  1  0.98384000  0.11046000  0.18935000  1.0
  H  H56  1  0.94403000  0.04860000  0.17996000  1.0
  H  H57  1  0.94710000  0.08039000  0.15609000  1.0
  H  H58  1  0.91702000  0.11512000  0.18973000  1.0
  H  H59  1  0.91130000  0.05822000  0.22757000  1.0
  H  H60  1  0.89133000  0.09582000  0.23357000  1.0
  H  H61  1  0.54309000  0.81469000  0.81758000  1.0
  H  H62  1  0.52755000  0.85891000  0.76898000  1.0
  H  H63  1  0.56461000  0.86151000  0.79319000  1.0
  H  H64  1  0.52045000  0.86423000  0.83221000  1.0
  H  H65  1  0.46050000  0.86309000  0.78764000  1.0
  H  H66  1  0.45460000  0.87088000  0.82389000  1.0
  H  H67  1  0.48140000  0.81894000  0.83492000  1.0
  H  H68  1  0.48577000  0.80994000  0.77171000  1.0
  H  H69  1  0.49475000  0.78098000  0.79776000  1.0
  H  H70  1  0.92955000  0.10756000  0.76310000  1.0
  H  H71  1  0.00978000  0.12828000  0.76543000  1.0
  H  H72  1  0.99322000  0.08961000  0.75995000  1.0
  H  H73  1  0.96150000  0.09062000  0.80499000  1.0
  H  H74  1  0.99468000  0.15561000  0.81342000  1.0
  H  H75  1  0.97014000  0.13314000  0.83855000  1.0
  H  H76  1  0.91624000  0.13160000  0.80718000  1.0
  H  H77  1  0.96139000  0.17305000  0.76843000  1.0
  H  H78  1  0.91387000  0.16357000  0.76470000  1.0
  H  H79  1  0.45367000  0.89558000  0.22963000  1.0
  H  H80  1  0.53225000  0.87337000  0.22047000  1.0
  H  H81  1  0.51857000  0.91069000  0.23338000  1.0
  H  H82  1  0.48179000  0.92002000  0.19127000  1.0
  H  H83  1  0.51224000  0.85801000  0.16971000  1.0
  H  H84  1  0.48592000  0.88563000  0.15033000  1.0
  H  H85  1  0.43538000  0.88124000  0.18435000  1.0
  H  H86  1  0.48196000  0.83134000  0.21304000  1.0
  H  H87  1  0.43535000  0.84095000  0.22067000  1.0
  H  H88  1  0.62231000  0.14494000  0.92603000  1.0
  H  H89  1  0.58489000  0.16528000  0.98620000  1.0
  H  H90  1  0.63567000  0.09622000  0.00035000  1.0
  H  H91  1  0.59748000  0.21219000  0.95806000  1.0
  H  H92  1  0.10429000  0.79171000  0.02255000  1.0
  H  H93  1  0.09748000  0.78793000  0.97979000  1.0
  H  H94  1  0.09858000  0.87152000  0.99819000  1.0
  H  H95  1  0.14418000  0.74788000  0.00210000  1.0
  H  H96  1  0.62066000  0.66325000  0.47029000  1.0
  H  H97  1  0.61221000  0.68182000  0.51147000  1.0
  H  H98  1  0.66371000  0.61291000  0.52171000  1.0
  H  H99  1  0.65840000  0.74167000  0.47189000  1.0
  H  H100  1  0.10047000  0.30832000  0.50405000  1.0
  H  H101  1  0.10218000  0.29340000  0.46307000  1.0
  H  H102  1  0.17150000  0.35795000  0.46790000  1.0
  H  H103  1  0.14887000  0.23420000  0.50431000  1.0
  H  H104  1  0.07263000  0.66634000  0.73626000  1.0
  H  H105  1  0.11495000  0.75947000  0.73906000  1.0
  H  H106  1  0.10406000  0.76489000  0.68956000  1.0
  H  H107  1  0.07840000  0.72228000  0.66267000  1.0
  H  H108  1  0.12810000  0.75018000  0.86372000  1.0
  H  H109  1  0.12783000  0.65074000  0.85556000  1.0
  H  H110  1  0.14402000  0.64580000  0.90437000  1.0
  H  H111  1  0.15237000  0.69164000  0.93338000  1.0
  H  H112  1  0.52856000  0.33161000  0.22028000  1.0
  H  H113  1  0.58775000  0.24528000  0.21836000  1.0
  H  H114  1  0.58819000  0.24409000  0.26871000  1.0
  H  H115  1  0.56005000  0.28558000  0.29556000  1.0
  H  H116  1  0.59786000  0.25049000  0.09580000  1.0
  H  H117  1  0.52197000  0.32638000  0.09253000  1.0
  H  H118  1  0.52234000  0.32360000  0.04190000  1.0
  H  H119  1  0.55936000  0.28478000  0.01770000  1.0
  H  H120  1  0.03133000  0.64973000  0.22804000  1.0
  H  H121  1  0.98564000  0.62749000  0.14852000  1.0
  H  H122  1  0.93536000  0.60054000  0.17122000  1.0
  H  H123  1  0.93245000  0.59675000  0.22166000  1.0
  H  H124  1  0.09950000  0.71167000  0.09677000  1.0
  H  H125  1  0.16934000  0.69272000  0.16620000  1.0
  H  H126  1  0.21945000  0.71940000  0.14278000  1.0
  H  H127  1  0.21075000  0.74276000  0.09707000  1.0
  H  H128  1  0.50842000  0.34043000  0.75655000  1.0
  H  H129  1  0.45768000  0.25110000  0.76544000  1.0
  H  H130  1  0.40965000  0.26693000  0.73349000  1.0
  H  H131  1  0.40974000  0.31778000  0.71252000  1.0
  H  H132  1  0.56943000  0.22984000  0.86081000  1.0
  H  H133  1  0.64456000  0.27233000  0.80390000  1.0
  H  H134  1  0.69565000  0.25302000  0.83137000  1.0
  H  H135  1  0.68524000  0.22284000  0.87338000  1.0
  H  H136  1  0.99836000  0.12113000  0.27222000  1.0
  H  H137  1  0.95475000  0.08682000  0.34889000  1.0
  H  H138  1  0.90872000  0.05754000  0.32330000  1.0
  H  H139  1  0.90630000  0.05903000  0.27324000  1.0
  H  H140  1  0.06225000  0.19152000  0.39837000  1.0
  H  H141  1  0.13439000  0.13150000  0.35298000  1.0
  H  H142  1  0.18572000  0.14967000  0.38080000  1.0
  H  H143  1  0.17706000  0.18851000  0.41685000  1.0
  H  H144  1  0.54173000  0.81884000  0.73859000  1.0
  H  H145  1  0.62786000  0.75118000  0.73360000  1.0
  H  H146  1  0.62665000  0.74540000  0.78369000  1.0
  H  H147  1  0.58466000  0.77570000  0.81199000  1.0
  H  H148  1  0.62542000  0.75656000  0.61050000  1.0
  H  H149  1  0.56023000  0.83934000  0.61231000  1.0
  H  H150  1  0.56447000  0.84288000  0.56183000  1.0
  H  H151  1  0.59821000  0.80396000  0.53513000  1.0
  H  H152  1  0.99854000  0.15997000  0.72750000  1.0
  H  H153  1  0.95366000  0.13911000  0.64733000  1.0
  H  H154  1  0.90737000  0.10661000  0.66915000  1.0
  H  H155  1  0.90592000  0.09975000  0.71939000  1.0
  H  H156  1  0.06635000  0.22425000  0.59470000  1.0
  H  H157  1  0.12290000  0.22783000  0.67279000  1.0
  H  H158  1  0.17208000  0.25706000  0.65110000  1.0
  H  H159  1  0.16991000  0.27022000  0.60202000  1.0
  H  H160  1  0.52174000  0.83573000  0.25687000  1.0
  H  H161  1  0.47780000  0.84520000  0.33924000  1.0
  H  H162  1  0.43311000  0.88211000  0.32206000  1.0
  H  H163  1  0.43150000  0.89670000  0.27335000  1.0
  H  H164  1  0.58606000  0.75442000  0.38459000  1.0
  H  H165  1  0.63712000  0.74754000  0.30455000  1.0
  H  H166  1  0.68340000  0.71329000  0.32410000  1.0
  H  H167  1  0.68248000  0.69932000  0.37311000  1.0
  H  H168  1  0.06061000  0.57060000  0.62080000  1.0
  H  H169  1  0.11376000  0.49391000  0.66090000  1.0
  H  H170  1  0.11703000  0.52408000  0.70374000  1.0
  H  H171  1  0.09204000  0.57641000  0.70624000  1.0
  H  H172  1  0.10245000  0.42265000  0.54905000  1.0
  H  H173  1  0.02235000  0.49069000  0.52508000  1.0
  H  H174  1  0.00764000  0.46013000  0.48425000  1.0
  H  H175  1  0.03875000  0.41132000  0.47490000  1.0
  H  H176  1  0.56541000  0.42486000  0.32811000  1.0
  H  H177  1  0.58140000  0.50840000  0.28122000  1.0
  H  H178  1  0.54703000  0.48571000  0.24264000  1.0
  H  H179  1  0.52150000  0.43325000  0.24615000  1.0
  H  H180  1  0.63474000  0.56361000  0.39462000  1.0
  H  H181  1  0.67021000  0.47080000  0.41389000  1.0
  H  H182  1  0.69740000  0.48950000  0.45675000  1.0
  H  H183  1  0.69356000  0.54409000  0.46966000  1.0
  H  H184  1  0.02433000  0.54731000  0.32042000  1.0
  H  H185  1  0.13363000  0.56059000  0.35023000  1.0
  H  H186  1  0.12982000  0.61562000  0.33830000  1.0
  H  H187  1  0.07485000  0.63710000  0.31724000  1.0
  H  H188  1  0.12644000  0.42481000  0.39139000  1.0
  H  H189  1  0.05136000  0.40819000  0.32457000  1.0
  H  H190  1  0.05394000  0.35261000  0.33395000  1.0
  H  H191  1  0.09139000  0.33223000  0.37158000  1.0
  H  H192  1  0.52885000  0.45887000  0.68336000  1.0
  H  H193  1  0.60617000  0.43128000  0.62110000  1.0
  H  H194  1  0.58341000  0.37817000  0.62377000  1.0
  H  H195  1  0.53363000  0.36458000  0.65460000  1.0
  H  H196  1  0.63892000  0.56707000  0.59957000  1.0
  H  H197  1  0.57770000  0.59228000  0.67224000  1.0
  H  H198  1  0.58715000  0.64706000  0.66149000  1.0
  H  H199  1  0.62075000  0.66273000  0.61991000  1.0
  H  H200  1  0.99861000  0.02366000  0.18025000  1.0
  H  H201  1  0.09775000  0.03976000  0.13495000  1.0
  H  H202  1  0.09308000  0.09515000  0.14487000  1.0
  H  H203  1  0.04140000  0.11585000  0.17090000  1.0
  H  H204  1  0.08871000  0.90473000  0.09422000  1.0
  H  H205  1  0.02992000  0.88516000  0.16951000  1.0
  H  H206  1  0.03948000  0.82974000  0.16218000  1.0
  H  H207  1  0.07402000  0.81102000  0.12214000  1.0
  H  H208  1  0.55644000  0.90795000  0.83922000  1.0
  H  H209  1  0.52520000  0.99460000  0.80223000  1.0
  H  H210  1  0.48234000  0.96711000  0.77212000  1.0
  H  H211  1  0.47602000  0.91086000  0.77459000  1.0
  H  H212  1  0.62173000  0.05223000  0.89891000  1.0
  H  H213  1  0.69548000  0.98146000  0.87018000  1.0
  H  H214  1  0.74659000  0.00976000  0.89051000  1.0
  H  H215  1  0.73674000  0.05911000  0.91447000  1.0
  H  H216  1  0.99325000  0.05060000  0.82432000  1.0
  H  H217  1  0.10677000  0.05882000  0.84512000  1.0
  H  H218  1  0.10767000  0.11099000  0.82519000  1.0
  H  H219  1  0.05265000  0.13357000  0.80481000  1.0
  H  H220  1  0.08936000  0.93533000  0.90899000  1.0
  H  H221  1  0.00151000  0.91405000  0.85307000  1.0
  H  H222  1  0.99899000  0.86136000  0.87136000  1.0
  H  H223  1  0.04031000  0.84469000  0.90804000  1.0
  H  H224  1  0.50863000  0.96134000  0.17067000  1.0
  H  H225  1  0.61967000  0.95877000  0.14250000  1.0
  H  H226  1  0.62524000  0.90551000  0.15965000  1.0
  H  H227  1  0.57356000  0.87949000  0.18190000  1.0
  H  H228  1  0.58417000  0.08488000  0.08338000  1.0
  H  H229  1  0.50996000  0.09979000  0.15120000  1.0
  H  H230  1  0.50311000  0.15383000  0.13743000  1.0
  H  H231  1  0.53568000  0.17442000  0.09746000  1.0
  H  H232  1  0.94841000  0.65609000  0.62751000  1.0
  H  H233  1  0.85245000  0.63331000  0.67437000  1.0
  H  H234  1  0.89099000  0.61655000  0.71296000  1.0
  H  H235  1  0.95758000  0.61938000  0.70975000  1.0
  H  H236  1  0.76148000  0.67273000  0.57083000  1.0
  H  H237  1  0.85824000  0.72075000  0.54380000  1.0
  H  H238  1  0.82309000  0.74689000  0.50806000  1.0
  H  H239  1  0.75804000  0.73734000  0.50295000  1.0
  H  H240  1  0.42433000  0.34118000  0.33586000  1.0
  H  H241  1  0.32085000  0.35910000  0.29740000  1.0
  H  H242  1  0.35235000  0.37887000  0.25631000  1.0
  H  H243  1  0.41909000  0.37982000  0.25412000  1.0
  H  H244  1  0.25078000  0.31676000  0.40893000  1.0
  H  H245  1  0.34831000  0.26268000  0.42007000  1.0
  H  H246  1  0.31787000  0.23201000  0.45556000  1.0
  H  H247  1  0.25442000  0.24163000  0.46753000  1.0
  H  H248  1  0.92244000  0.64877000  0.35106000  1.0
  H  H249  1  0.90129000  0.74664000  0.35497000  1.0
  H  H250  1  0.93780000  0.75431000  0.31300000  1.0
  H  H251  1  0.96649000  0.71061000  0.28971000  1.0
  H  H252  1  0.77760000  0.69045000  0.43677000  1.0
  H  H253  1  0.87454000  0.65537000  0.47606000  1.0
  H  H254  1  0.83779000  0.63574000  0.51443000  1.0
  H  H255  1  0.77147000  0.64065000  0.51371000  1.0
  H  H256  1  0.39621000  0.38490000  0.64897000  1.0
  H  H257  1  0.30171000  0.44375000  0.64573000  1.0
  H  H258  1  0.32292000  0.47098000  0.68712000  1.0
  H  H259  1  0.37983000  0.45598000  0.70995000  1.0
  H  H260  1  0.24152000  0.35835000  0.55439000  1.0
  H  H261  1  0.34860000  0.31796000  0.54705000  1.0
  H  H262  1  0.32472000  0.27983000  0.51453000  1.0
  H  H263  1  0.25988000  0.27886000  0.50308000  1.0
  H  H264  1  0.87302000  0.12184000  0.15609000  1.0
  H  H265  1  0.79179000  0.05208000  0.14024000  1.0
  H  H266  1  0.82250000  0.01723000  0.17259000  1.0
  H  H267  1  0.87820000  0.03305000  0.19619000  1.0
  H  H268  1  0.71509000  0.14416000  0.06293000  1.0
  H  H269  1  0.81412000  0.19787000  0.06195000  1.0
  H  H270  1  0.78763000  0.23240000  0.02748000  1.0
  H  H271  1  0.72593000  0.22411000  0.01031000  1.0
  H  H272  1  0.42081000  0.83330000  0.85390000  1.0
  H  H273  1  0.33033000  0.78419000  0.81816000  1.0
  H  H274  1  0.36793000  0.77080000  0.77818000  1.0
  H  H275  1  0.43066000  0.78825000  0.77474000  1.0
  H  H276  1  0.24538000  0.81321000  0.92612000  1.0
  H  H277  1  0.30662000  0.89836000  0.92578000  1.0
  H  H278  1  0.26032000  0.92254000  0.95497000  1.0
  H  H279  1  0.20573000  0.89394000  0.96859000  1.0
  H  H280  1  0.90019000  0.14952000  0.85222000  1.0
  H  H281  1  0.88644000  0.24767000  0.86292000  1.0
  H  H282  1  0.92194000  0.25691000  0.82066000  1.0
  H  H283  1  0.94638000  0.21381000  0.79387000  1.0
  H  H284  1  0.75736000  0.18565000  0.93576000  1.0
  H  H285  1  0.84994000  0.14659000  0.97779000  1.0
  H  H286  1  0.80917000  0.12244000  0.01165000  1.0
  H  H287  1  0.74300000  0.12680000  0.00663000  1.0
  H  H288  1  0.40514000  0.87153000  0.14346000  1.0
  H  H289  1  0.40082000  0.77912000  0.11030000  1.0
  H  H290  1  0.44768000  0.76288000  0.14338000  1.0
  H  H291  1  0.47383000  0.79977000  0.17627000  1.0
  H  H292  1  0.26002000  0.82542000  0.05068000  1.0
  H  H293  1  0.31104000  0.91527000  0.04787000  1.0
  H  H294  1  0.25753000  0.93630000  0.02449000  1.0
  H  H295  1  0.20422000  0.90381000  0.01581000  1.0
  C  C296  1  0.05720000  0.66529000  0.68006000  1.0
  C  C297  1  0.07545000  0.63332000  0.68370000  1.0
  C  C298  1  0.05814000  0.60985000  0.66342000  1.0
  C  C299  1  0.01687000  0.60739000  0.66854000  1.0
  C  C300  1  0.99886000  0.63939000  0.66526000  1.0
  C  C301  1  0.01592000  0.66304000  0.68528000  1.0
  C  C302  1  0.52541000  0.33726000  0.27713000  1.0
  C  C303  1  0.54127000  0.36957000  0.27085000  1.0
  C  C304  1  0.52503000  0.39342000  0.29109000  1.0
  C  C305  1  0.48320000  0.39408000  0.28892000  1.0
  C  C306  1  0.46775000  0.36159000  0.29489000  1.0
  C  C307  1  0.48362000  0.33755000  0.27468000  1.0
  C  C308  1  0.97946000  0.62004000  0.25988000  1.0
  C  C309  1  0.01526000  0.60935000  0.27352000  1.0
  C  C310  1  0.01032000  0.60623000  0.30498000  1.0
  C  C311  1  0.99707000  0.63707000  0.31773000  1.0
  C  C312  1  0.96126000  0.64738000  0.30401000  1.0
  C  C313  1  0.96656000  0.65086000  0.27247000  1.0
  C  C314  1  0.46045000  0.36641000  0.72103000  1.0
  C  C315  1  0.49291000  0.37031000  0.70109000  1.0
  C  C316  1  0.49565000  0.40414000  0.69082000  1.0
  C  C317  1  0.46029000  0.41375000  0.67616000  1.0
  C  C318  1  0.42731000  0.40982000  0.69546000  1.0
  C  C319  1  0.42492000  0.37637000  0.70635000  1.0
  C  C320  1  0.95059000  0.09427000  0.23711000  1.0
  C  C321  1  0.98301000  0.07792000  0.22295000  1.0
  C  C322  1  0.98281000  0.08484000  0.19171000  1.0
  C  C323  1  0.94690000  0.07413000  0.17837000  1.0
  C  C324  1  0.91416000  0.08966000  0.19245000  1.0
  C  C325  1  0.91449000  0.08339000  0.22384000  1.0
  C  C326  1  0.53457000  0.81821000  0.79573000  1.0
  C  C327  1  0.53616000  0.85339000  0.79042000  1.0
  C  C328  1  0.51121000  0.87035000  0.81098000  1.0
  C  C329  1  0.47169000  0.85848000  0.80854000  1.0
  C  C330  1  0.47018000  0.82331000  0.81391000  1.0
  C  C331  1  0.49528000  0.80620000  0.79324000  1.0
  C  C332  1  0.95100000  0.12492000  0.75827000  1.0
  C  C333  1  0.98707000  0.11214000  0.76999000  1.0
  C  C334  1  0.98405000  0.10736000  0.80145000  1.0
  C  C335  1  0.97324000  0.13774000  0.81608000  1.0
  C  C336  1  0.93711000  0.15001000  0.80435000  1.0
  C  C337  1  0.94038000  0.15530000  0.77288000  1.0
  C  C338  1  0.47452000  0.87697000  0.23124000  1.0
  C  C339  1  0.51026000  0.89098000  0.22005000  1.0
  C  C340  1  0.50422000  0.90274000  0.19025000  1.0
  C  C341  1  0.49106000  0.87627000  0.17137000  1.0
  C  C342  1  0.45569000  0.86219000  0.18282000  1.0
  C  C343  1  0.46147000  0.85020000  0.21262000  1.0
  C  C344  1  0.67311000  0.08825000  0.92343000  1.0
  C  C345  1  0.60366000  0.24112000  0.04111000  1.0
  C  C346  1  0.62033000  0.20751000  0.89667000  1.0
  C  C347  1  0.58163000  0.14404000  0.06317000  1.0
  C  C348  1  0.70598000  0.15788000  0.96689000  1.0
  C  C349  1  0.67878000  0.17858000  0.02463000  1.0
  C  C350  1  0.10454000  0.84505000  0.08162000  1.0
  C  C351  1  0.14488000  0.75209000  0.91848000  1.0
  C  C352  1  0.14818000  0.74421000  0.06667000  1.0
  C  C353  1  0.09238000  0.87878000  0.93385000  1.0
  C  C354  1  0.19592000  0.84281000  0.02779000  1.0
  C  C355  1  0.18959000  0.83379000  0.95809000  1.0
  C  C356  1  0.66125000  0.59064000  0.44141000  1.0
  C  C357  1  0.63381000  0.75304000  0.55532000  1.0
  C  C358  1  0.63382000  0.71759000  0.41222000  1.0
  C  C359  1  0.65125000  0.62513000  0.58143000  1.0
  C  C360  1  0.72986000  0.66736000  0.47444000  1.0
  C  C361  1  0.71584000  0.69815000  0.53221000  1.0
  C  C362  1  0.09182000  0.38398000  0.50491000  1.0
  C  C363  1  0.11476000  0.21839000  0.43077000  1.0
  C  C364  1  0.11668000  0.25645000  0.56505000  1.0
  C  C365  1  0.13312000  0.36482000  0.40773000  1.0
  C  C366  1  0.20738000  0.31765000  0.52025000  1.0
  C  C367  1  0.20965000  0.28627000  0.44717000  1.0
  C  C368  1  0.07437000  0.69073000  0.69734000  1.0
  C  C369  1  0.08006000  0.68765000  0.72601000  1.0
  C  C370  1  0.09493000  0.71227000  0.74145000  1.0
  C  C371  1  0.10344000  0.74010000  0.72792000  1.0
  C  C372  1  0.09747000  0.74334000  0.69972000  1.0
  C  C373  1  0.08302000  0.71896000  0.68454000  1.0
  C  C374  1  0.10204000  0.70924000  0.77148000  1.0
  C  C375  1  0.11746000  0.70393000  0.82618000  1.0
  C  C376  1  0.14085000  0.72445000  0.90063000  1.0
  C  C377  1  0.13167000  0.72737000  0.87253000  1.0
  C  C378  1  0.12679000  0.70094000  0.85586000  1.0
  C  C379  1  0.13125000  0.67154000  0.86773000  1.0
  C  C380  1  0.14056000  0.66856000  0.89548000  1.0
  C  C381  1  0.14536000  0.69474000  0.91185000  1.0
  C  C382  1  0.54252000  0.31192000  0.25985000  1.0
  C  C383  1  0.54174000  0.31256000  0.23077000  1.0
  C  C384  1  0.55821000  0.28872000  0.21535000  1.0
  C  C385  1  0.57494000  0.26409000  0.22944000  1.0
  C  C386  1  0.57533000  0.26321000  0.25813000  1.0
  C  C387  1  0.55929000  0.28687000  0.27325000  1.0
  C  C388  1  0.55844000  0.28918000  0.18476000  1.0
  C  C389  1  0.55943000  0.28914000  0.12864000  1.0
  C  C390  1  0.58153000  0.26492000  0.05514000  1.0
  C  C391  1  0.58145000  0.26662000  0.08409000  1.0
  C  C392  1  0.55996000  0.28853000  0.09804000  1.0
  C  C393  1  0.53880000  0.30920000  0.08250000  1.0
  C  C394  1  0.53884000  0.30767000  0.05370000  1.0
  C  C395  1  0.55989000  0.28558000  0.04003000  1.0
  C  C396  1  0.98230000  0.62225000  0.22867000  1.0
  C  C397  1  0.01079000  0.63842000  0.21567000  1.0
  C  C398  1  0.01267000  0.64027000  0.18669000  1.0
  C  C399  1  0.98509000  0.62651000  0.17084000  1.0
  C  C400  1  0.95648000  0.61102000  0.18361000  1.0
  C  C401  1  0.95503000  0.60887000  0.21227000  1.0
  C  C402  1  0.04334000  0.65620000  0.17291000  1.0
  C  C403  1  0.09992000  0.68447000  0.14719000  1.0
  C  C404  1  0.15436000  0.72876000  0.09349000  1.0
  C  C405  1  0.12580000  0.71308000  0.10673000  1.0
  C  C406  1  0.13059000  0.70009000  0.13310000  1.0
  C  C407  1  0.16468000  0.70255000  0.14596000  1.0
  C  C408  1  0.19329000  0.71766000  0.13273000  1.0
  C  C409  1  0.18823000  0.73081000  0.10671000  1.0
  C  C410  1  0.45931000  0.33365000  0.73296000  1.0
  C  C411  1  0.48695000  0.32432000  0.75133000  1.0
  C  C412  1  0.48689000  0.29457000  0.76315000  1.0
  C  C413  1  0.45851000  0.27415000  0.75675000  1.0
  C  C414  1  0.43122000  0.28297000  0.73849000  1.0
  C  C415  1  0.43160000  0.31226000  0.72652000  1.0
  C  C416  1  0.51672000  0.28443000  0.78154000  1.0
  C  C417  1  0.57237000  0.26402000  0.81356000  1.0
  C  C418  1  0.62640000  0.22405000  0.87029000  1.0
  C  C419  1  0.59700000  0.23468000  0.85428000  1.0
  C  C420  1  0.60310000  0.25237000  0.83030000  1.0
  C  C421  1  0.63896000  0.25895000  0.82231000  1.0
  C  C422  1  0.66813000  0.24795000  0.83778000  1.0
  C  C423  1  0.66200000  0.23067000  0.86160000  1.0
  C  C424  1  0.95205000  0.09076000  0.26848000  1.0
  C  C425  1  0.97884000  0.10708000  0.28333000  1.0
  C  C426  1  0.98015000  0.10592000  0.31233000  1.0
  C  C427  1  0.95430000  0.08826000  0.32658000  1.0
  C  C428  1  0.92823000  0.07146000  0.31213000  1.0
  C  C429  1  0.92714000  0.07241000  0.28338000  1.0
  C  C430  1  0.00911000  0.12213000  0.32774000  1.0
  C  C431  1  0.06381000  0.14824000  0.35722000  1.0
  C  C432  1  0.11887000  0.19310000  0.41035000  1.0
  C  C433  1  0.08919000  0.18230000  0.39470000  1.0
  C  C434  1  0.09449000  0.16009000  0.37379000  1.0
  C  C435  1  0.12959000  0.14869000  0.36882000  1.0
  C  C436  1  0.15882000  0.15879000  0.38465000  1.0
  C  C437  1  0.15361000  0.18076000  0.40527000  1.0
  C  C438  1  0.56049000  0.80006000  0.77745000  1.0
  C  C439  1  0.56060000  0.80312000  0.74843000  1.0
  C  C440  1  0.58498000  0.78574000  0.73217000  1.0
  C  C441  1  0.60872000  0.76493000  0.74531000  1.0
  C  C442  1  0.60830000  0.76154000  0.77386000  1.0
  C  C443  1  0.58442000  0.77889000  0.78983000  1.0
  C  C444  1  0.58624000  0.78900000  0.70166000  1.0
  C  C445  1  0.59022000  0.79480000  0.64580000  1.0
  C  C446  1  0.61444000  0.77740000  0.57097000  1.0
  C  C447  1  0.61224000  0.77555000  0.59992000  1.0
  C  C448  1  0.59266000  0.79759000  0.61529000  1.0
  C  C449  1  0.57547000  0.82192000  0.60120000  1.0
  C  C450  1  0.57782000  0.82405000  0.57247000  1.0
  C  C451  1  0.59707000  0.80193000  0.55738000  1.0
  C  C452  1  0.95252000  0.12911000  0.72717000  1.0
  C  C453  1  0.97889000  0.14812000  0.71469000  1.0
  C  C454  1  0.97988000  0.15190000  0.68582000  1.0
  C  C455  1  0.95373000  0.13676000  0.66957000  1.0
  C  C456  1  0.92737000  0.11816000  0.68184000  1.0
  C  C457  1  0.92671000  0.11431000  0.71040000  1.0
  C  C458  1  0.00832000  0.17120000  0.67269000  1.0
  C  C459  1  0.06133000  0.20555000  0.64848000  1.0
  C  C460  1  0.11778000  0.24817000  0.59468000  1.0
  C  C461  1  0.08938000  0.23140000  0.60707000  1.0
  C  C462  1  0.09077000  0.22374000  0.63534000  1.0
  C  C463  1  0.12086000  0.23330000  0.65105000  1.0
  C  C464  1  0.14901000  0.24989000  0.63884000  1.0
  C  C465  1  0.14762000  0.25724000  0.61088000  1.0
  C  C466  1  0.47684000  0.86754000  0.26143000  1.0
  C  C467  1  0.50261000  0.84595000  0.27118000  1.0
  C  C468  1  0.50346000  0.83758000  0.29938000  1.0
  C  C469  1  0.47806000  0.85096000  0.31750000  1.0
  C  C470  1  0.45252000  0.87206000  0.30790000  1.0
  C  C471  1  0.45182000  0.88028000  0.28017000  1.0
  C  C472  1  0.53053000  0.81523000  0.31037000  1.0
  C  C473  1  0.58033000  0.77510000  0.33141000  1.0
  C  C474  1  0.63400000  0.72584000  0.38251000  1.0
  C  C475  1  0.60719000  0.74539000  0.37128000  1.0
  C  C476  1  0.60793000  0.75369000  0.34310000  1.0
  C  C477  1  0.63566000  0.74175000  0.32626000  1.0
  C  C478  1  0.66214000  0.72227000  0.33726000  1.0
  C  C479  1  0.66149000  0.71443000  0.36517000  1.0
  C  C480  1  0.07546000  0.57791000  0.66320000  1.0
  C  C481  1  0.07341000  0.56041000  0.63877000  1.0
  C  C482  1  0.08688000  0.53000000  0.63748000  1.0
  C  C483  1  0.10310000  0.51724000  0.66110000  1.0
  C  C484  1  0.10498000  0.53430000  0.68554000  1.0
  C  C485  1  0.09086000  0.56426000  0.68679000  1.0
  C  C486  1  0.08251000  0.51160000  0.61182000  1.0
  C  C487  1  0.07146000  0.47760000  0.56534000  1.0
  C  C488  1  0.07303000  0.41335000  0.51133000  1.0
  C  C489  1  0.08176000  0.43088000  0.53495000  1.0
  C  C490  1  0.06359000  0.45898000  0.54033000  1.0
  C  C491  1  0.03694000  0.46930000  0.52165000  1.0
  C  C492  1  0.02827000  0.45197000  0.49839000  1.0
  C  C493  1  0.04602000  0.42417000  0.49326000  1.0
  C  C494  1  0.54154000  0.42529000  0.28760000  1.0
  C  C495  1  0.56165000  0.43815000  0.30937000  1.0
  C  C496  1  0.57619000  0.46809000  0.30750000  1.0
  C  C497  1  0.57053000  0.48526000  0.28329000  1.0
  C  C498  1  0.55107000  0.47244000  0.26132000  1.0
  C  C499  1  0.53666000  0.44263000  0.26336000  1.0
  C  C500  1  0.59676000  0.48098000  0.33107000  1.0
  C  C501  1  0.63216000  0.50387000  0.37582000  1.0
  C  C502  1  0.66388000  0.55791000  0.43294000  1.0
  C  C503  1  0.64870000  0.54743000  0.40799000  1.0
  C  C504  1  0.65030000  0.51585000  0.40091000  1.0
  C  C505  1  0.66823000  0.49518000  0.41873000  1.0
  C  C506  1  0.68374000  0.50562000  0.44320000  1.0
  C  C507  1  0.68141000  0.53668000  0.45041000  1.0
  C  C508  1  0.04476000  0.59392000  0.31833000  1.0
  C  C509  1  0.04732000  0.56223000  0.32461000  1.0
  C  C510  1  0.07918000  0.54973000  0.33612000  1.0
  C  C511  1  0.10869000  0.56943000  0.34142000  1.0
  C  C512  1  0.10668000  0.60075000  0.33466000  1.0
  C  C513  1  0.07518000  0.61292000  0.32288000  1.0
  C  C514  1  0.08173000  0.51616000  0.34197000  1.0
  C  C515  1  0.08654000  0.45444000  0.35195000  1.0
  C  C516  1  0.11186000  0.37710000  0.38426000  1.0
  C  C517  1  0.11088000  0.40904000  0.37866000  1.0
  C  C518  1  0.08888000  0.42076000  0.35729000  1.0
  C  C519  1  0.06842000  0.40002000  0.34125000  1.0
  C  C520  1  0.06977000  0.36835000  0.34645000  1.0
  C  C521  1  0.09117000  0.35692000  0.36785000  1.0
  C  C522  1  0.52815000  0.41068000  0.67225000  1.0
  C  C523  1  0.54130000  0.44120000  0.67063000  1.0
  C  C524  1  0.56922000  0.44923000  0.65212000  1.0
  C  C525  1  0.58457000  0.42603000  0.63552000  1.0
  C  C526  1  0.57173000  0.39575000  0.63694000  1.0
  C  C527  1  0.54340000  0.38811000  0.65480000  1.0
  C  C528  1  0.58099000  0.48189000  0.64918000  1.0
  C  C529  1  0.59949000  0.54222000  0.64181000  1.0
  C  C530  1  0.63263000  0.61586000  0.60705000  1.0
  C  C531  1  0.62798000  0.58440000  0.61342000  1.0
  C  C532  1  0.60760000  0.57534000  0.63666000  1.0
  C  C533  1  0.59332000  0.59834000  0.65410000  1.0
  C  C534  1  0.59849000  0.62958000  0.64806000  1.0
  C  C535  1  0.61760000  0.63836000  0.62448000  1.0
  C  C536  1  0.01569000  0.07129000  0.17710000  1.0
  C  C537  1  0.01909000  0.03927000  0.17236000  1.0
  C  C538  1  0.04821000  0.02751000  0.15668000  1.0
  C  C539  1  0.07483000  0.04803000  0.14685000  1.0
  C  C540  1  0.07235000  0.07957000  0.15242000  1.0
  C  C541  1  0.04299000  0.09118000  0.16731000  1.0
  C  C542  1  0.05056000  0.99410000  0.15010000  1.0
  C  C543  1  0.05510000  0.93285000  0.13803000  1.0
  C  C544  1  0.08341000  0.85668000  0.10522000  1.0
  C  C545  1  0.07767000  0.88851000  0.10906000  1.0
  C  C546  1  0.05879000  0.89930000  0.13248000  1.0
  C  C547  1  0.04463000  0.87771000  0.15134000  1.0
  C  C548  1  0.05014000  0.84614000  0.14739000  1.0
  C  C549  1  0.06980000  0.83565000  0.12468000  1.0
  C  C550  1  0.51470000  0.90522000  0.80812000  1.0
  C  C551  1  0.54001000  0.92095000  0.82473000  1.0
  C  C552  1  0.54413000  0.95319000  0.82293000  1.0
  C  C553  1  0.52256000  0.96977000  0.80417000  1.0
  C  C554  1  0.49825000  0.95424000  0.78697000  1.0
  C  C555  1  0.49461000  0.92216000  0.78859000  1.0
  C  C556  1  0.57182000  0.96917000  0.83985000  1.0
  C  C557  1  0.62455000  0.99861000  0.86891000  1.0
  C  C558  1  0.67841000  0.05895000  0.90857000  1.0
  C  C559  1  0.64891000  0.04282000  0.89709000  1.0
  C  C560  1  0.65473000  0.01486000  0.88286000  1.0
  C  C561  1  0.69015000  0.00289000  0.88100000  1.0
  C  C562  1  0.71937000  0.01896000  0.89233000  1.0
  C  C563  1  0.71365000  0.04700000  0.90579000  1.0
  C  C564  1  0.01867000  0.09375000  0.81340000  1.0
  C  C565  1  0.01831000  0.06372000  0.82452000  1.0
  C  C566  1  0.04983000  0.05069000  0.83612000  1.0
  C  C567  1  0.08200000  0.06816000  0.83642000  1.0
  C  C568  1  0.08269000  0.09782000  0.82507000  1.0
  C  C569  1  0.05134000  0.11056000  0.81354000  1.0
  C  C570  1  0.04898000  0.01896000  0.84766000  1.0
  C  C571  1  0.04704000  0.96065000  0.86855000  1.0
  C  C572  1  0.06799000  0.88889000  0.91130000  1.0
  C  C573  1  0.06971000  0.91917000  0.90070000  1.0
  C  C574  1  0.04578000  0.92873000  0.87967000  1.0
  C  C575  1  0.02024000  0.90754000  0.86929000  1.0
  C  C576  1  0.01869000  0.87749000  0.87956000  1.0
  C  C577  1  0.04233000  0.86816000  0.90040000  1.0
  C  C578  1  0.53732000  0.91875000  0.17819000  1.0
  C  C579  1  0.53428000  0.94931000  0.16850000  1.0
  C  C580  1  0.56366000  0.96417000  0.15549000  1.0
  C  C581  1  0.59649000  0.94801000  0.15235000  1.0
  C  C582  1  0.59983000  0.91776000  0.16214000  1.0
  C  C583  1  0.57048000  0.90312000  0.17492000  1.0
  C  C584  1  0.55970000  0.99637000  0.14536000  1.0
  C  C585  1  0.55188000  0.05553000  0.12728000  1.0
  C  C586  1  0.56230000  0.13108000  0.08732000  1.0
  C  C587  1  0.56645000  0.09988000  0.09518000  1.0
  C  C588  1  0.54771000  0.08814000  0.11832000  1.0
  C  C589  1  0.52469000  0.10795000  0.13329000  1.0
  C  C590  1  0.52073000  0.13879000  0.12564000  1.0
  C  C591  1  0.53942000  0.15035000  0.10292000  1.0
  C  C592  1  0.95783000  0.63775000  0.66814000  1.0
  C  C593  1  0.93570000  0.64742000  0.64613000  1.0
  C  C594  1  0.89758000  0.64606000  0.64792000  1.0
  C  C595  1  0.88168000  0.63464000  0.67223000  1.0
  C  C596  1  0.90348000  0.62514000  0.69426000  1.0
  C  C597  1  0.94130000  0.62676000  0.69236000  1.0
  C  C598  1  0.87492000  0.65730000  0.62465000  1.0
  C  C599  1  0.83416000  0.68030000  0.58258000  1.0
  C  C600  1  0.75496000  0.70409000  0.53647000  1.0
  C  C601  1  0.77500000  0.68893000  0.55722000  1.0
  C  C602  1  0.81248000  0.69486000  0.56032000  1.0
  C  C603  1  0.82953000  0.71568000  0.54214000  1.0
  C  C604  1  0.80969000  0.73083000  0.52182000  1.0
  C  C605  1  0.77265000  0.72540000  0.51916000  1.0
  C  C606  1  0.42656000  0.36107000  0.29521000  1.0
  C  C607  1  0.40847000  0.34950000  0.31855000  1.0
  C  C608  1  0.37035000  0.34856000  0.31978000  1.0
  C  C609  1  0.35025000  0.35957000  0.29719000  1.0
  C  C610  1  0.36803000  0.37077000  0.27375000  1.0
  C  C611  1  0.40595000  0.37134000  0.27261000  1.0
  C  C612  1  0.35215000  0.33520000  0.34432000  1.0
  C  C613  1  0.31934000  0.30852000  0.38854000  1.0
  C  C614  1  0.24818000  0.28085000  0.43990000  1.0
  C  C615  1  0.26551000  0.29845000  0.41930000  1.0
  C  C616  1  0.30162000  0.29194000  0.41162000  1.0
  C  C617  1  0.32051000  0.26827000  0.42539000  1.0
  C  C618  1  0.30334000  0.25061000  0.44552000  1.0
  C  C619  1  0.26727000  0.25638000  0.45235000  1.0
  C  C620  1  0.94559000  0.67588000  0.31814000  1.0
  C  C621  1  0.92577000  0.67186000  0.34270000  1.0
  C  C622  1  0.90957000  0.69711000  0.35616000  1.0
  C  C623  1  0.91351000  0.72680000  0.34498000  1.0
  C  C624  1  0.93426000  0.73124000  0.32121000  1.0
  C  C625  1  0.95054000  0.70611000  0.30797000  1.0
  C  C626  1  0.88893000  0.69220000  0.38190000  1.0
  C  C627  1  0.85041000  0.68166000  0.42871000  1.0
  C  C628  1  0.76987000  0.66703000  0.47567000  1.0
  C  C629  1  0.79091000  0.67930000  0.45406000  1.0
  C  C630  1  0.82873000  0.67431000  0.45351000  1.0
  C  C631  1  0.84546000  0.65912000  0.47578000  1.0
  C  C632  1  0.82475000  0.64777000  0.49755000  1.0
  C  C633  1  0.78713000  0.65086000  0.49713000  1.0
  C  C634  1  0.39231000  0.41927000  0.68106000  1.0
  C  C635  1  0.38025000  0.40380000  0.65718000  1.0
  C  C636  1  0.34754000  0.41224000  0.64415000  1.0
  C  C637  1  0.32699000  0.43663000  0.65522000  1.0
  C  C638  1  0.33892000  0.45221000  0.67876000  1.0
  C  C639  1  0.37128000  0.44362000  0.69164000  1.0
  C  C640  1  0.33468000  0.39509000  0.61951000  1.0
  C  C641  1  0.31049000  0.36139000  0.57585000  1.0
  C  C642  1  0.24643000  0.31936000  0.52689000  1.0
  C  C643  1  0.25998000  0.34166000  0.54536000  1.0
  C  C644  1  0.29677000  0.34102000  0.55352000  1.0
  C  C645  1  0.32011000  0.31898000  0.54158000  1.0
  C  C646  1  0.30673000  0.29713000  0.52310000  1.0
  C  C647  1  0.27001000  0.29686000  0.51635000  1.0
  C  C648  1  0.87899000  0.07935000  0.17875000  1.0
  C  C649  1  0.86163000  0.09913000  0.15988000  1.0
  C  C650  1  0.83017000  0.08969000  0.14567000  1.0
  C  C651  1  0.81593000  0.06012000  0.15080000  1.0
  C  C652  1  0.83328000  0.04018000  0.16918000  1.0
  C  C653  1  0.86482000  0.04947000  0.18280000  1.0
  C  C654  1  0.81301000  0.11033000  0.12503000  1.0
  C  C655  1  0.78264000  0.14781000  0.08637000  1.0
  C  C656  1  0.71592000  0.18337000  0.03541000  1.0
  C  C657  1  0.73102000  0.16337000  0.05522000  1.0
  C  C658  1  0.76649000  0.16837000  0.06523000  1.0
  C  C659  1  0.78669000  0.19346000  0.05493000  1.0
  C  C660  1  0.77181000  0.21324000  0.03531000  1.0
  C  C661  1  0.73664000  0.20843000  0.02571000  1.0
  C  C662  1  0.43100000  0.81187000  0.81449000  1.0
  C  C663  1  0.40919000  0.81961000  0.83737000  1.0
  C  C664  1  0.37275000  0.80999000  0.83903000  1.0
  C  C665  1  0.35829000  0.79194000  0.81760000  1.0
  C  C666  1  0.37951000  0.78437000  0.79475000  1.0
  C  C667  1  0.41544000  0.79445000  0.79296000  1.0
  C  C668  1  0.34950000  0.81988000  0.86240000  1.0
  C  C669  1  0.30493000  0.84068000  0.90311000  1.0
  C  C670  1  0.22243000  0.85096000  0.94953000  1.0
  C  C671  1  0.24893000  0.83697000  0.93271000  1.0
  C  C672  1  0.27926000  0.85395000  0.92348000  1.0
  C  C673  1  0.28359000  0.88466000  0.93238000  1.0
  C  C674  1  0.25725000  0.89863000  0.94885000  1.0
  C  C675  1  0.22646000  0.88217000  0.95680000  1.0
  C  C676  1  0.92395000  0.17802000  0.82051000  1.0
  C  C677  1  0.90495000  0.17301000  0.84527000  1.0
  C  C678  1  0.89120000  0.19785000  0.86071000  1.0
  C  C679  1  0.89688000  0.22814000  0.85140000  1.0
  C  C680  1  0.91700000  0.23346000  0.82745000  1.0
  C  C681  1  0.93080000  0.20868000  0.81219000  1.0
  C  C682  1  0.87061000  0.19178000  0.88623000  1.0
  C  C683  1  0.83032000  0.17787000  0.93142000  1.0
  C  C684  1  0.74551000  0.15778000  0.97155000  1.0
  C  C685  1  0.76880000  0.17270000  0.95284000  1.0
  C  C686  1  0.80655000  0.16799000  0.95431000  1.0
  C  C687  1  0.82094000  0.15034000  0.97605000  1.0
  C  C688  1  0.79794000  0.13642000  0.99522000  1.0
  C  C689  1  0.76041000  0.13927000  0.99248000  1.0
  C  C690  1  0.44025000  0.83829000  0.16304000  1.0
  C  C691  1  0.41419000  0.84769000  0.14352000  1.0
  C  C692  1  0.39957000  0.82669000  0.12436000  1.0
  C  C693  1  0.41152000  0.79588000  0.12478000  1.0
  C  C694  1  0.43816000  0.78654000  0.14355000  1.0
  C  C695  1  0.45278000  0.80760000  0.16238000  1.0
  C  C696  1  0.37192000  0.83718000  0.10418000  1.0
  C  C697  1  0.31965000  0.85717000  0.06878000  1.0
  C  C698  1  0.22892000  0.86181000  0.03141000  1.0
  C  C699  1  0.25994000  0.84945000  0.04437000  1.0
  C  C700  1  0.28950000  0.86866000  0.05125000  1.0
  C  C701  1  0.28862000  0.89992000  0.04326000  1.0
  C  C702  1  0.25823000  0.91207000  0.03001000  1.0
  C  C703  1  0.22818000  0.89340000  0.02481000  1.0
  N  N704  1  0.10053000  0.68130000  0.78421000  1.0
  N  N705  1  0.10813000  0.67872000  0.81099000  1.0
  N  N706  1  0.11868000  0.73187000  0.81347000  1.0
  N  N707  1  0.11119000  0.73444000  0.78671000  1.0
  N  N708  1  0.54028000  0.31121000  0.17026000  1.0
  N  N709  1  0.54074000  0.31116000  0.14275000  1.0
  N  N710  1  0.57757000  0.26723000  0.14319000  1.0
  N  N711  1  0.57707000  0.26725000  0.17060000  1.0
  N  N712  1  0.07388000  0.66376000  0.18712000  1.0
  N  N713  1  0.10163000  0.67758000  0.17451000  1.0
  N  N714  1  0.06935000  0.67698000  0.13303000  1.0
  N  N715  1  0.04170000  0.66307000  0.14560000  1.0
  N  N716  1  0.54970000  0.29841000  0.78054000  1.0
  N  N717  1  0.57698000  0.28835000  0.79617000  1.0
  N  N718  1  0.53928000  0.25025000  0.81479000  1.0
  N  N719  1  0.51206000  0.26018000  0.79901000  1.0
  N  N720  1  0.04239000  0.12621000  0.31628000  1.0
  N  N721  1  0.06925000  0.13885000  0.33079000  1.0
  N  N722  1  0.03035000  0.14469000  0.36855000  1.0
  N  N723  1  0.00357000  0.13173000  0.35412000  1.0
  N  N724  1  0.56691000  0.81122000  0.68832000  1.0
  N  N725  1  0.56888000  0.81406000  0.66094000  1.0
  N  N726  1  0.60940000  0.77261000  0.65919000  1.0
  N  N727  1  0.60749000  0.76981000  0.68647000  1.0
  N  N728  1  0.03566000  0.18347000  0.68796000  1.0
  N  N729  1  0.06160000  0.20026000  0.67611000  1.0
  N  N730  1  0.03389000  0.19342000  0.63320000  1.0
  N  N731  1  0.00796000  0.17657000  0.64506000  1.0
  N  N732  1  0.55662000  0.80281000  0.29395000  1.0
  N  N733  1  0.58100000  0.78317000  0.30427000  1.0
  N  N734  1  0.55417000  0.78745000  0.34774000  1.0
  N  N735  1  0.52984000  0.80705000  0.33745000  1.0
  N  N736  1  0.06324000  0.52325000  0.59035000  1.0
  N  N737  1  0.05782000  0.50663000  0.56766000  1.0
  N  N738  1  0.09111000  0.46594000  0.58669000  1.0
  N  N739  1  0.09648000  0.48260000  0.60949000  1.0
  N  N740  1  0.61000000  0.46179000  0.35078000  1.0
  N  N741  1  0.62736000  0.47298000  0.37263000  1.0
  N  N742  1  0.61912000  0.52317000  0.35601000  1.0
  N  N743  1  0.60183000  0.51193000  0.33401000  1.0
  N  N744  1  0.05709000  0.49622000  0.33113000  1.0
  N  N745  1  0.05948000  0.46602000  0.33598000  1.0
  N  N746  1  0.11117000  0.47437000  0.36290000  1.0
  N  N747  1  0.10887000  0.50461000  0.35793000  1.0
  N  N748  1  0.56723000  0.50424000  0.66586000  1.0
  N  N749  1  0.57630000  0.53376000  0.66226000  1.0
  N  N750  1  0.61355000  0.51984000  0.62531000  1.0
  N  N751  1  0.60453000  0.49031000  0.62894000  1.0
  N  N752  1  0.02948000  0.97323000  0.16355000  1.0
  N  N753  1  0.03181000  0.94323000  0.15770000  1.0
  N  N754  1  0.07600000  0.95374000  0.12444000  1.0
  N  N755  1  0.07378000  0.98374000  0.13036000  1.0
  N  N756  1  0.60097000  0.95338000  0.84962000  1.0
  N  N757  1  0.62688000  0.96784000  0.86374000  1.0
  N  N758  1  0.59516000  0.01438000  0.85948000  1.0
  N  N759  1  0.56935000  0.99995000  0.84513000  1.0
  N  N760  1  0.02043000  0.99999000  0.84241000  1.0
  N  N761  1  0.01952000  0.97145000  0.85259000  1.0
  N  N762  1  0.07559000  0.97963000  0.87390000  1.0
  N  N763  1  0.07658000  0.00819000  0.86361000  1.0
  N  N764  1  0.53133000  0.01398000  0.15386000  1.0
  N  N765  1  0.52757000  0.04292000  0.14508000  1.0
  N  N766  1  0.58023000  0.03791000  0.11859000  1.0
  N  N767  1  0.58410000  0.00892000  0.12750000  1.0
  N  N768  1  0.89085000  0.67094000  0.60254000  1.0
  N  N769  1  0.87094000  0.68221000  0.58202000  1.0
  N  N770  1  0.81807000  0.66631000  0.60452000  1.0
  N  N771  1  0.83807000  0.65505000  0.62516000  1.0
  N  N772  1  0.37187000  0.31962000  0.36346000  1.0
  N  N773  1  0.35582000  0.30651000  0.38505000  1.0
  N  N774  1  0.29954000  0.32441000  0.36959000  1.0
  N  N775  1  0.31563000  0.33747000  0.34788000  1.0
  N  N776  1  0.89857000  0.66914000  0.39938000  1.0
  N  N777  1  0.87977000  0.66406000  0.42236000  1.0
  N  N778  1  0.84067000  0.70476000  0.41122000  1.0
  N  N779  1  0.85977000  0.71008000  0.38832000  1.0
  N  N780  1  0.35662000  0.37418000  0.60696000  1.0
  N  N781  1  0.34478000  0.35771000  0.58562000  1.0
  N  N782  1  0.28860000  0.38256000  0.58819000  1.0
  N  N783  1  0.30049000  0.39913000  0.60955000  1.0
  N  N784  1  0.82963000  0.13696000  0.11730000  1.0
  N  N785  1  0.81478000  0.15528000  0.09838000  1.0
  N  N786  1  0.76590000  0.12121000  0.09413000  1.0
  N  N787  1  0.78082000  0.10282000  0.11304000  1.0
  N  N788  1  0.35953000  0.84399000  0.87865000  1.0
  N  N789  1  0.33765000  0.85423000  0.89852000  1.0
  N  N790  1  0.29513000  0.81625000  0.88716000  1.0
  N  N791  1  0.31694000  0.80610000  0.86718000  1.0
  N  N792  1  0.87936000  0.16726000  0.90237000  1.0
  N  N793  1  0.85969000  0.16052000  0.92458000  1.0
  N  N794  1  0.82165000  0.20255000  0.91537000  1.0
  N  N795  1  0.84162000  0.20952000  0.89329000  1.0
  N  N796  1  0.36768000  0.86776000  0.09885000  1.0
  N  N797  1  0.34215000  0.87753000  0.08152000  1.0
  N  N798  1  0.32402000  0.82650000  0.07393000  1.0
  N  N799  1  0.34976000  0.81669000  0.09119000  1.0
  O  O800  1  0.69024000  0.18221000  0.95584000  1.0
  O  O801  1  0.64697000  0.09106000  0.94180000  1.0
  O  O802  1  0.69696000  0.11055000  0.92036000  1.0
  O  O803  1  0.59780000  0.23416000  0.01502000  1.0
  O  O804  1  0.62811000  0.22561000  0.05517000  1.0
  O  O805  1  0.66269000  0.15153000  0.02736000  1.0
  O  O806  1  0.68798000  0.13243000  0.97228000  1.0
  O  O807  1  0.64839000  0.20005000  0.91211000  1.0
  O  O808  1  0.58725000  0.20229000  0.90570000  1.0
  O  O809  1  0.59720000  0.12599000  0.04481000  1.0
  O  O810  1  0.58270000  0.17409000  0.05962000  1.0
  O  O811  1  0.66316000  0.20175000  0.01177000  1.0
  O  O812  1  0.62262000  0.15182000  0.94550000  1.0
  O  O813  1  0.59514000  0.17162000  0.00415000  1.0
  O  O814  1  0.62102000  0.11292000  0.99191000  1.0
  O  O815  1  0.62291000  0.21279000  0.96460000  1.0
  O  O816  1  0.19879000  0.81249000  0.02699000  1.0
  O  O817  1  0.09956000  0.85633000  0.05665000  1.0
  O  O818  1  0.12706000  0.82187000  0.08535000  1.0
  O  O819  1  0.15371000  0.74872000  0.94462000  1.0
  O  O820  1  0.13824000  0.77988000  0.90877000  1.0
  O  O821  1  0.16039000  0.84954000  0.96516000  1.0
  O  O822  1  0.16421000  0.85681000  0.02748000  1.0
  O  O823  1  0.17298000  0.76280000  0.05632000  1.0
  O  O824  1  0.11671000  0.74143000  0.05412000  1.0
  O  O825  1  0.09076000  0.85009000  0.94277000  1.0
  O  O826  1  0.11511000  0.89831000  0.94538000  1.0
  O  O827  1  0.19000000  0.80334000  0.95775000  1.0
  O  O828  1  0.12316000  0.80189000  0.03368000  1.0
  O  O829  1  0.11445000  0.79687000  0.96626000  1.0
  O  O830  1  0.09783000  0.84870000  0.99951000  1.0
  O  O831  1  0.16414000  0.76286000  0.99921000  1.0
  O  O832  1  0.71233000  0.69106000  0.46372000  1.0
  O  O833  1  0.66640000  0.59768000  0.46751000  1.0
  O  O834  1  0.65485000  0.61246000  0.42320000  1.0
  O  O835  1  0.63309000  0.75211000  0.52814000  1.0
  O  O836  1  0.65018000  0.73059000  0.56872000  1.0
  O  O837  1  0.70133000  0.67144000  0.53943000  1.0
  O  O838  1  0.71284000  0.64289000  0.48381000  1.0
  O  O839  1  0.66235000  0.70398000  0.42323000  1.0
  O  O840  1  0.60558000  0.72410000  0.42773000  1.0
  O  O841  1  0.64019000  0.64988000  0.56804000  1.0
  O  O842  1  0.67695000  0.60763000  0.57100000  1.0
  O  O843  1  0.69682000  0.71973000  0.51977000  1.0
  O  O844  1  0.64437000  0.65935000  0.46148000  1.0
  O  O845  1  0.62903000  0.68977000  0.52563000  1.0
  O  O846  1  0.65000000  0.63041000  0.51380000  1.0
  O  O847  1  0.64569000  0.72243000  0.47725000  1.0
  O  O848  1  0.19289000  0.29042000  0.51518000  1.0
  O  O849  1  0.12253000  0.37637000  0.51700000  1.0
  O  O850  1  0.07873000  0.36575000  0.48562000  1.0
  O  O851  1  0.14297000  0.22621000  0.44593000  1.0
  O  O852  1  0.08491000  0.23499000  0.43170000  1.0
  O  O853  1  0.19169000  0.30931000  0.43586000  1.0
  O  O854  1  0.18743000  0.34284000  0.52003000  1.0
  O  O855  1  0.14542000  0.26910000  0.55363000  1.0
  O  O856  1  0.08728000  0.25184000  0.55025000  1.0
  O  O857  1  0.12811000  0.33606000  0.41577000  1.0
  O  O858  1  0.15563000  0.38277000  0.42133000  1.0
  O  O859  1  0.19347000  0.26666000  0.46388000  1.0
  O  O860  1  0.12039000  0.31270000  0.51699000  1.0
  O  O861  1  0.12271000  0.28785000  0.45106000  1.0
  O  O862  1  0.14832000  0.34674000  0.47046000  1.0
  O  O863  1  0.13432000  0.25231000  0.49851000  1.0
