# generated using pymatgen
data_Dy5H48C78(N9O17)2
_symmetry_space_group_name_H-M   'P 1'
_cell_length_a   26.65210000
_cell_length_b   53.69050000
_cell_length_c   53.90310000
_cell_angle_alpha   89.99400000
_cell_angle_beta   90.04600000
_cell_angle_gamma   90.04600000
_symmetry_Int_Tables_number   1
_chemical_formula_structural   Dy5H48C78(N9O17)2
_chemical_formula_sum   'Dy20 H192 C312 N72 O136'
_cell_volume   77133.37644972
_cell_formula_units_Z   4
loop_
 _symmetry_equiv_pos_site_id
 _symmetry_equiv_pos_as_xyz
  1  'x, y, z'
loop_
 _atom_site_type_symbol
 _atom_site_label
 _atom_site_symmetry_multiplicity
 _atom_site_fract_x
 _atom_site_fract_y
 _atom_site_fract_z
 _atom_site_occupancy
  Dy  Dy0  1  0.01077000  0.19779000  0.21816000  1.0
  Dy  Dy1  1  0.04578000  0.25484000  0.19666000  1.0
  Dy  Dy2  1  0.13132000  0.21313000  0.20547000  1.0
  Dy  Dy3  1  0.08934000  0.19827000  0.26333000  1.0
  Dy  Dy4  1  0.07025000  0.25573000  0.25419000  1.0
  Dy  Dy5  1  0.59697000  0.29525000  0.71304000  1.0
  Dy  Dy6  1  0.50621000  0.25189000  0.70095000  1.0
  Dy  Dy7  1  0.47281000  0.30702000  0.71781000  1.0
  Dy  Dy8  1  0.55124000  0.30702000  0.76713000  1.0
  Dy  Dy9  1  0.51747000  0.25179000  0.75894000  1.0
  Dy  Dy10  1  0.01192000  0.80704000  0.79238000  1.0
  Dy  Dy11  1  0.92387000  0.81095000  0.74672000  1.0
  Dy  Dy12  1  0.88852000  0.79522000  0.80194000  1.0
  Dy  Dy13  1  0.97964000  0.75153000  0.80875000  1.0
  Dy  Dy14  1  0.94764000  0.75334000  0.75212000  1.0
  Dy  Dy15  1  0.54055000  0.70489000  0.29026000  1.0
  Dy  Dy16  1  0.49402000  0.76058000  0.31006000  1.0
  Dy  Dy17  1  0.42082000  0.71272000  0.30918000  1.0
  Dy  Dy18  1  0.45225000  0.69698000  0.25011000  1.0
  Dy  Dy19  1  0.45771000  0.75547000  0.25446000  1.0
  H  H20  1  0.97676000  0.24775000  0.23096000  1.0
  H  H21  1  0.05111000  0.21125000  0.17207000  1.0
  H  H22  1  0.99973000  0.21832000  0.26642000  1.0
  H  H23  1  0.16070000  0.23249000  0.25456000  1.0
  H  H24  1  0.09416000  0.16754000  0.22403000  1.0
  H  H25  1  0.13528000  0.26559000  0.21612000  1.0
  H  H26  1  0.59197000  0.24202000  0.72329000  1.0
  H  H27  1  0.52501000  0.29374000  0.67500000  1.0
  H  H28  1  0.61571000  0.27120000  0.75917000  1.0
  H  H29  1  0.45644000  0.29145000  0.76952000  1.0
  H  H30  1  0.55306000  0.33936000  0.72892000  1.0
  H  H31  1  0.43122000  0.25961000  0.73225000  1.0
  H  H32  1  0.01492000  0.79236000  0.74064000  1.0
  H  H33  1  0.93145000  0.84030000  0.78707000  1.0
  H  H34  1  0.04386000  0.76035000  0.77277000  1.0
  H  H35  1  0.88748000  0.74144000  0.79117000  1.0
  H  H36  1  0.96754000  0.79260000  0.83667000  1.0
  H  H37  1  0.85578000  0.77545000  0.75493000  1.0
  H  H38  1  0.55692000  0.75548000  0.27262000  1.0
  H  H39  1  0.50739000  0.71922000  0.33750000  1.0
  H  H40  1  0.53453000  0.72212000  0.24052000  1.0
  H  H41  1  0.37466000  0.72650000  0.26144000  1.0
  H  H42  1  0.46578000  0.66888000  0.29098000  1.0
  H  H43  1  0.39881000  0.76338000  0.29535000  1.0
  H  H44  1  0.30738000  0.23411000  0.60604000  1.0
  H  H45  1  0.10656000  0.21403000  0.53058000  1.0
  H  H46  1  0.98057000  0.20101000  0.48119000  1.0
  H  H47  1  0.02270000  0.27187000  0.41420000  1.0
  H  H48  1  0.01540000  0.26029000  0.45787000  1.0
  H  H49  1  0.01167000  0.18269000  0.43771000  1.0
  H  H50  1  0.01961000  0.19404000  0.39372000  1.0
  H  H51  1  0.94858000  0.22280000  0.51757000  1.0
  H  H52  1  0.92468000  0.19211000  0.59238000  1.0
  H  H53  1  0.78248000  0.25625000  0.62243000  1.0
  H  H54  1  0.86282000  0.25041000  0.60108000  1.0
  H  H55  1  0.83595000  0.17139000  0.59735000  1.0
  H  H56  1  0.75513000  0.17701000  0.61827000  1.0
  H  H57  1  0.00317000  0.21219000  0.59185000  1.0
  H  H58  1  0.15515000  0.22949000  0.55978000  1.0
  H  H59  1  0.18442000  0.25518000  0.65386000  1.0
  H  H60  1  0.12493000  0.24092000  0.62282000  1.0
  H  H61  1  0.24684000  0.21947000  0.57488000  1.0
  H  H62  1  0.58936000  0.09175000  0.73071000  1.0
  H  H63  1  0.52095000  0.98796000  0.71477000  1.0
  H  H64  1  0.50748000  0.90714000  0.70201000  1.0
  H  H65  1  0.70476000  0.89586000  0.72528000  1.0
  H  H66  1  0.63869000  0.92412000  0.71078000  1.0
  H  H67  1  0.52700000  0.86830000  0.72672000  1.0
  H  H68  1  0.59239000  0.83991000  0.74088000  1.0
  H  H69  1  0.43837000  0.92010000  0.72422000  1.0
  H  H70  1  0.30602000  0.95672000  0.69685000  1.0
  H  H71  1  0.21318000  0.87167000  0.72783000  1.0
  H  H72  1  0.29224000  0.89373000  0.72317000  1.0
  H  H73  1  0.21255000  0.96025000  0.70167000  1.0
  H  H74  1  0.13293000  0.93765000  0.70502000  1.0
  H  H75  1  0.35915000  0.98931000  0.71659000  1.0
  H  H76  1  0.50727000  0.02225000  0.69318000  1.0
  H  H77  1  0.44136000  0.11596000  0.70853000  1.0
  H  H78  1  0.41959000  0.07278000  0.69786000  1.0
  H  H79  1  0.56737000  0.04892000  0.71979000  1.0
  H  H80  1  0.70858000  0.77699000  0.39502000  1.0
  H  H81  1  0.89587000  0.79338000  0.47402000  1.0
  H  H82  1  0.01422000  0.82324000  0.52576000  1.0
  H  H83  1  0.90586000  0.80152000  0.60727000  1.0
  H  H84  1  0.90563000  0.81452000  0.56343000  1.0
  H  H85  1  0.06184000  0.79501000  0.55745000  1.0
  H  H86  1  0.06233000  0.78157000  0.60079000  1.0
  H  H87  1  0.05071000  0.80232000  0.49532000  1.0
  H  H88  1  0.08494000  0.77064000  0.42244000  1.0
  H  H89  1  0.26207000  0.81967000  0.41198000  1.0
  H  H90  1  0.17687000  0.82174000  0.42840000  1.0
  H  H91  1  0.15704000  0.74339000  0.41363000  1.0
  H  H92  1  0.24162000  0.74131000  0.39662000  1.0
  H  H93  1  0.01198000  0.79159000  0.41884000  1.0
  H  H94  1  0.85503000  0.80761000  0.43767000  1.0
  H  H95  1  0.82846000  0.78109000  0.34124000  1.0
  H  H96  1  0.88660000  0.79338000  0.37390000  1.0
  H  H97  1  0.76784000  0.78845000  0.42793000  1.0
  H  H98  1  0.80707000  0.14332000  0.27932000  1.0
  H  H99  1  0.60691000  0.08614000  0.28562000  1.0
  H  H100  1  0.45134000  0.06316000  0.29961000  1.0
  H  H101  1  0.42032000  0.16077000  0.27801000  1.0
  H  H102  1  0.47991000  0.12810000  0.28849000  1.0
  H  H103  1  0.36349000  0.07281000  0.28096000  1.0
  H  H104  1  0.30264000  0.10580000  0.27136000  1.0
  H  H105  1  0.49672000  0.02799000  0.28372000  1.0
  H  H106  1  0.62763000  0.97885000  0.27332000  1.0
  H  H107  1  0.52669000  0.89557000  0.30180000  1.0
  H  H108  1  0.54335000  0.93948000  0.31048000  1.0
  H  H109  1  0.62288000  0.94606000  0.24119000  1.0
  H  H110  1  0.60728000  0.90216000  0.23252000  1.0
  H  H111  1  0.65164000  0.01036000  0.29854000  1.0
  H  H112  1  0.67341000  0.09269000  0.30892000  1.0
  H  H113  1  0.87341000  0.07880000  0.31433000  1.0
  H  H114  1  0.78979000  0.06021000  0.31861000  1.0
  H  H115  1  0.72413000  0.12452000  0.28358000  1.0
  H  H116  1  0.18319000  0.73450000  0.89857000  1.0
  H  H117  1  0.37694000  0.71158000  0.97610000  1.0
  H  H118  1  0.49663000  0.68824000  0.02795000  1.0
  H  H119  1  0.46999000  0.76370000  0.09214000  1.0
  H  H120  1  0.46834000  0.75003000  0.04906000  1.0
  H  H121  1  0.47362000  0.67342000  0.07274000  1.0
  H  H122  1  0.47535000  0.68696000  0.11624000  1.0
  H  H123  1  0.53427000  0.70514000  0.99268000  1.0
  H  H124  1  0.55792000  0.72782000  0.91732000  1.0
  H  H125  1  0.75756000  0.71259000  0.93183000  1.0
  H  H126  1  0.67444000  0.71034000  0.95045000  1.0
  H  H127  1  0.60711000  0.72441000  0.87896000  1.0
  H  H128  1  0.69031000  0.72778000  0.86049000  1.0
  H  H129  1  0.48443000  0.70347000  0.91703000  1.0
  H  H130  1  0.33461000  0.73016000  0.94640000  1.0
  H  H131  1  0.30780000  0.75479000  0.85140000  1.0
  H  H132  1  0.36624000  0.74139000  0.88348000  1.0
  H  H133  1  0.24248000  0.72093000  0.93067000  1.0
  H  H134  1  0.21620000  0.63072000  0.21502000  1.0
  H  H135  1  0.97555000  0.58576000  0.22247000  1.0
  H  H136  1  0.82685000  0.55326000  0.19903000  1.0
  H  H137  1  0.72526000  0.62371000  0.25084000  1.0
  H  H138  1  0.80126000  0.59889000  0.24817000  1.0
  H  H139  1  0.75892000  0.57433000  0.17493000  1.0
  H  H140  1  0.68163000  0.59871000  0.17770000  1.0
  H  H141  1  0.87126000  0.52463000  0.21890000  1.0
  H  H142  1  0.00437000  0.47574000  0.20702000  1.0
  H  H143  1  0.93103000  0.40260000  0.26594000  1.0
  H  H144  1  0.93426000  0.44712000  0.25787000  1.0
  H  H145  1  0.00331000  0.43330000  0.18691000  1.0
  H  H146  1  0.00127000  0.38854000  0.19502000  1.0
  H  H147  1  0.02878000  0.51054000  0.22789000  1.0
  H  H148  1  0.05751000  0.58921000  0.20716000  1.0
  H  H149  1  0.16503000  0.61084000  0.28845000  1.0
  H  H150  1  0.09797000  0.58600000  0.27045000  1.0
  H  H151  1  0.14823000  0.60548000  0.19699000  1.0
  H  H152  1  0.72884000  0.22331000  0.13661000  1.0
  H  H153  1  0.64204000  0.27909000  0.03132000  1.0
  H  H154  1  0.52782000  0.25269000  0.98332000  1.0
  H  H155  1  0.59489000  0.29277000  0.89786000  1.0
  H  H156  1  0.57719000  0.29945000  0.94179000  1.0
  H  H157  1  0.56274000  0.22027000  0.95264000  1.0
  H  H158  1  0.58025000  0.21328000  0.90859000  1.0
  H  H159  1  0.48747000  0.28390000  0.00981000  1.0
  H  H160  1  0.45648000  0.30498000  0.08905000  1.0
  H  H161  1  0.25795000  0.29567000  0.07334000  1.0
  H  H162  1  0.34087000  0.30251000  0.05495000  1.0
  H  H163  1  0.41089000  0.28078000  0.12366000  1.0
  H  H164  1  0.32856000  0.27402000  0.14230000  1.0
  H  H165  1  0.52709000  0.28415000  0.08705000  1.0
  H  H166  1  0.69137000  0.28830000  0.06215000  1.0
  H  H167  1  0.82561000  0.28621000  0.12156000  1.0
  H  H168  1  0.76543000  0.30112000  0.09040000  1.0
  H  H169  1  0.67037000  0.23789000  0.10532000  1.0
  H  H170  1  0.05091000  0.61983000  0.80269000  1.0
  H  H171  1  0.11538000  0.50013000  0.76957000  1.0
  H  H172  1  0.14259000  0.42900000  0.80580000  1.0
  H  H173  1  0.29889000  0.39946000  0.75037000  1.0
  H  H174  1  0.21775000  0.42036000  0.75137000  1.0
  H  H175  1  0.22566000  0.42475000  0.83110000  1.0
  H  H176  1  0.30743000  0.40375000  0.83035000  1.0
  H  H177  1  0.07085000  0.42402000  0.77979000  1.0
  H  H178  1  0.92311000  0.44472000  0.75019000  1.0
  H  H179  1  0.81424000  0.37656000  0.72917000  1.0
  H  H180  1  0.87751000  0.40963000  0.72631000  1.0
  H  H181  1  0.89054000  0.41059000  0.80599000  1.0
  H  H182  1  0.82880000  0.37743000  0.80909000  1.0
  H  H183  1  0.95860000  0.48065000  0.76915000  1.0
  H  H184  1  0.07553000  0.53304000  0.79114000  1.0
  H  H185  1  0.03861000  0.60512000  0.72408000  1.0
  H  H186  1  0.04042000  0.56044000  0.73237000  1.0
  H  H187  1  0.05264000  0.57494000  0.81076000  1.0
  H  H188  1  0.24573000  0.14178000  0.27305000  1.0
  H  H189  1  0.72107000  0.25515000  0.65634000  1.0
  H  H190  1  0.13394000  0.85940000  0.74668000  1.0
  H  H191  1  0.65330000  0.77564000  0.35968000  1.0
  H  H192  1  0.29391000  0.64475000  0.23689000  1.0
  H  H193  1  0.88818000  0.26444000  0.14502000  1.0
  H  H194  1  0.35435000  0.36502000  0.75456000  1.0
  H  H195  1  0.76761000  0.74818000  0.85141000  1.0
  H  H196  1  0.76590000  0.86265000  0.73196000  1.0
  H  H197  1  0.30443000  0.74635000  0.36660000  1.0
  H  H198  1  0.88738000  0.15154000  0.26331000  1.0
  H  H199  1  0.36045000  0.24055000  0.64241000  1.0
  H  H200  1  0.74360000  0.35054000  0.73444000  1.0
  H  H201  1  0.13105000  0.73997000  0.86273000  1.0
  H  H202  1  0.65856000  0.65169000  0.24937000  1.0
  H  H203  1  0.25141000  0.25611000  0.15326000  1.0
  H  H204  1  0.05668000  0.20836000  0.35460000  1.0
  H  H205  1  0.47961000  0.15777000  0.70734000  1.0
  H  H206  1  0.92847000  0.80343000  0.65341000  1.0
  H  H207  1  0.52465000  0.85212000  0.29495000  1.0
  H  H208  1  0.45325000  0.70295000  0.15688000  1.0
  H  H209  1  0.00846000  0.34706000  0.20614000  1.0
  H  H210  1  0.57453000  0.28453000  0.85594000  1.0
  H  H211  1  0.01968000  0.66067000  0.79273000  1.0
  C  C212  1  0.00624000  0.30053000  0.23448000  1.0
  C  C213  1  0.20743000  0.18671000  0.24788000  1.0
  C  C214  1  0.04984000  0.23768000  0.30841000  1.0
  C  C215  1  0.93057000  0.23405000  0.18560000  1.0
  C  C216  1  0.14384000  0.25697000  0.16342000  1.0
  C  C217  1  0.99340000  0.16364000  0.26796000  1.0
  C  C218  1  0.52733000  0.19984000  0.73362000  1.0
  C  C219  1  0.45113000  0.34341000  0.76760000  1.0
  C  C220  1  0.57644000  0.26025000  0.80778000  1.0
  C  C221  1  0.61693000  0.24714000  0.67319000  1.0
  C  C222  1  0.40020000  0.27199000  0.68319000  1.0
  C  C223  1  0.66573000  0.31991000  0.75768000  1.0
  C  C224  1  0.95868000  0.77573000  0.69857000  1.0
  C  C225  1  0.87538000  0.74762000  0.84213000  1.0
  C  C226  1  0.01473000  0.70811000  0.76595000  1.0
  C  C227  1  0.02761000  0.84518000  0.74281000  1.0
  C  C228  1  0.81205000  0.82301000  0.76300000  1.0
  C  C229  1  0.09006000  0.76972000  0.82141000  1.0
  C  C230  1  0.51421000  0.80498000  0.26744000  1.0
  C  C231  1  0.34360000  0.67800000  0.27381000  1.0
  C  C232  1  0.47039000  0.73496000  0.20062000  1.0
  C  C233  1  0.61563000  0.74873000  0.31612000  1.0
  C  C234  1  0.40362000  0.75885000  0.34827000  1.0
  C  C235  1  0.55516000  0.66830000  0.24185000  1.0
  C  C236  1  0.02228000  0.23385000  0.40055000  1.0
  C  C237  1  0.02079000  0.25230000  0.41902000  1.0
  C  C238  1  0.01697000  0.24574000  0.44398000  1.0
  C  C239  1  0.01405000  0.22061000  0.45096000  1.0
  C  C240  1  0.01456000  0.20214000  0.43259000  1.0
  C  C241  1  0.01933000  0.20866000  0.40755000  1.0
  C  C242  1  0.03933000  0.22291000  0.49459000  1.0
  C  C243  1  0.02878000  0.21840000  0.52115000  1.0
  C  C244  1  0.97943000  0.21939000  0.53024000  1.0
  C  C245  1  0.76252000  0.21707000  0.62203000  1.0
  C  C246  1  0.79359000  0.23763000  0.61704000  1.0
  C  C247  1  0.83919000  0.23437000  0.60459000  1.0
  C  C248  1  0.85466000  0.21048000  0.59723000  1.0
  C  C249  1  0.82419000  0.18994000  0.60263000  1.0
  C  C250  1  0.77817000  0.19322000  0.61457000  1.0
  C  C251  1  0.91817000  0.21975000  0.56544000  1.0
  C  C252  1  0.96983000  0.21678000  0.55571000  1.0
  C  C253  1  0.01021000  0.21318000  0.57208000  1.0
  C  C254  1  0.25063000  0.24570000  0.63246000  1.0
  C  C255  1  0.19878000  0.24702000  0.63692000  1.0
  C  C256  1  0.16461000  0.23853000  0.61928000  1.0
  C  C257  1  0.18149000  0.22838000  0.59679000  1.0
  C  C258  1  0.23325000  0.22677000  0.59235000  1.0
  C  C259  1  0.26769000  0.23510000  0.61017000  1.0
  C  C260  1  0.10162000  0.21110000  0.58158000  1.0
  C  C261  1  0.05987000  0.21263000  0.56337000  1.0
  C  C262  1  0.06872000  0.21498000  0.53778000  1.0
  C  C263  1  0.65375000  0.86573000  0.73449000  1.0
  C  C264  1  0.66618000  0.88954000  0.72551000  1.0
  C  C265  1  0.62837000  0.90585000  0.71755000  1.0
  C  C266  1  0.57769000  0.89852000  0.71849000  1.0
  C  C267  1  0.56576000  0.87437000  0.72624000  1.0
  C  C268  1  0.60322000  0.85822000  0.73435000  1.0
  C  C269  1  0.53305000  0.93873000  0.72044000  1.0
  C  C270  1  0.48500000  0.95244000  0.71813000  1.0
  C  C271  1  0.43899000  0.94000000  0.72079000  1.0
  C  C272  1  0.16668000  0.90303000  0.71722000  1.0
  C  C273  1  0.21236000  0.89110000  0.72247000  1.0
  C  C274  1  0.25781000  0.90393000  0.72015000  1.0
  C  C275  1  0.25851000  0.92926000  0.71329000  1.0
  C  C276  1  0.21291000  0.94095000  0.70752000  1.0
  C  C277  1  0.16749000  0.92800000  0.70940000  1.0
  C  C278  1  0.34627000  0.93955000  0.72505000  1.0
  C  C279  1  0.39355000  0.95311000  0.72007000  1.0
  C  C280  1  0.39417000  0.97906000  0.71656000  1.0
  C  C281  1  0.51704000  0.10721000  0.72058000  1.0
  C  C282  1  0.46927000  0.10152000  0.71098000  1.0
  C  C283  1  0.45658000  0.07686000  0.70512000  1.0
  C  C284  1  0.49169000  0.05765000  0.70856000  1.0
  C  C285  1  0.53976000  0.06350000  0.71728000  1.0
  C  C286  1  0.55216000  0.08795000  0.72353000  1.0
  C  C287  1  0.44076000  0.01965000  0.71340000  1.0
  C  C288  1  0.44001000  0.99195000  0.71429000  1.0
  C  C289  1  0.48521000  0.97839000  0.71532000  1.0
  C  C290  1  0.98407000  0.79039000  0.60734000  1.0
  C  C291  1  0.94015000  0.80014000  0.59660000  1.0
  C  C292  1  0.93984000  0.80738000  0.57160000  1.0
  C  C293  1  0.98365000  0.80531000  0.55726000  1.0
  C  C294  1  0.02775000  0.79652000  0.56828000  1.0
  C  C295  1  0.02786000  0.78881000  0.59295000  1.0
  C  C296  1  0.95583000  0.80007000  0.51421000  1.0
  C  C297  1  0.97110000  0.79945000  0.48769000  1.0
  C  C298  1  0.02223000  0.80047000  0.48111000  1.0
  C  C299  1  0.25859000  0.78038000  0.40288000  1.0
  C  C300  1  0.23982000  0.80279000  0.41262000  1.0
  C  C301  1  0.19116000  0.80391000  0.42230000  1.0
  C  C302  1  0.16082000  0.78245000  0.42295000  1.0
  C  C303  1  0.17996000  0.76006000  0.41354000  1.0
  C  C304  1  0.22829000  0.75896000  0.40370000  1.0
  C  C305  1  0.09171000  0.79747000  0.45002000  1.0
  C  C306  1  0.03748000  0.79735000  0.45641000  1.0
  C  C307  1  0.00090000  0.79351000  0.43808000  1.0
  C  C308  1  0.76408000  0.77777000  0.36555000  1.0
  C  C309  1  0.81461000  0.78264000  0.36006000  1.0
  C  C310  1  0.84807000  0.78938000  0.37882000  1.0
  C  C311  1  0.83204000  0.79068000  0.40363000  1.0
  C  C312  1  0.78108000  0.78706000  0.40899000  1.0
  C  C313  1  0.74729000  0.78061000  0.39014000  1.0
  C  C314  1  0.91354000  0.78544000  0.42452000  1.0
  C  C315  1  0.94987000  0.79211000  0.44421000  1.0
  C  C316  1  0.93509000  0.79518000  0.46905000  1.0
  C  C317  1  0.35694000  0.13585000  0.27357000  1.0
  C  C318  1  0.40728000  0.14166000  0.27861000  1.0
  C  C319  1  0.44161000  0.12291000  0.28427000  1.0
  C  C320  1  0.42671000  0.09778000  0.28429000  1.0
  C  C321  1  0.37590000  0.09202000  0.28051000  1.0
  C  C322  1  0.34120000  0.11089000  0.27516000  1.0
  C  C323  1  0.50953000  0.07825000  0.27851000  1.0
  C  C324  1  0.54740000  0.05926000  0.28524000  1.0
  C  C325  1  0.53508000  0.03388000  0.28694000  1.0
  C  C326  1  0.56535000  0.89531000  0.26634000  1.0
  C  C327  1  0.54765000  0.90632000  0.28836000  1.0
  C  C328  1  0.55653000  0.93160000  0.29320000  1.0
  C  C329  1  0.58301000  0.94632000  0.27603000  1.0
  C  C330  1  0.60165000  0.93515000  0.25444000  1.0
  C  C331  1  0.59264000  0.91004000  0.24954000  1.0
  C  C332  1  0.56017000  0.98895000  0.28984000  1.0
  C  C333  1  0.57275000  0.01594000  0.29090000  1.0
  C  C334  1  0.62257000  0.02389000  0.29464000  1.0
  C  C335  1  0.84705000  0.11236000  0.29613000  1.0
  C  C336  1  0.84116000  0.08892000  0.30742000  1.0
  C  C337  1  0.79348000  0.07816000  0.30965000  1.0
  C  C338  1  0.75095000  0.09076000  0.30073000  1.0
  C  C339  1  0.75667000  0.11441000  0.29017000  1.0
  C  C340  1  0.80419000  0.12504000  0.28765000  1.0
  C  C341  1  0.68879000  0.05705000  0.29541000  1.0
  C  C342  1  0.63537000  0.04924000  0.29329000  1.0
  C  C343  1  0.59754000  0.06668000  0.28809000  1.0
  C  C344  1  0.47239000  0.72643000  0.10765000  1.0
  C  C345  1  0.47017000  0.74390000  0.08827000  1.0
  C  C346  1  0.46866000  0.73611000  0.06359000  1.0
  C  C347  1  0.46943000  0.71064000  0.05771000  1.0
  C  C348  1  0.47208000  0.69312000  0.07697000  1.0
  C  C349  1  0.47293000  0.70090000  0.10178000  1.0
  C  C350  1  0.44275000  0.71271000  0.01404000  1.0
  C  C351  1  0.45401000  0.70834000  0.98743000  1.0
  C  C352  1  0.50377000  0.70517000  0.97937000  1.0
  C  C353  1  0.73057000  0.72039000  0.89472000  1.0
  C  C354  1  0.72495000  0.71481000  0.92003000  1.0
  C  C355  1  0.67711000  0.71313000  0.93064000  1.0
  C  C356  1  0.63389000  0.71625000  0.91590000  1.0
  C  C357  1  0.63977000  0.72160000  0.89060000  1.0
  C  C358  1  0.68743000  0.72365000  0.88009000  1.0
  C  C359  1  0.56773000  0.70217000  0.94564000  1.0
  C  C360  1  0.51492000  0.70377000  0.95400000  1.0
  C  C361  1  0.47575000  0.70478000  0.93663000  1.0
  C  C362  1  0.24078000  0.74553000  0.87229000  1.0
  C  C363  1  0.29284000  0.74710000  0.86844000  1.0
  C  C364  1  0.32639000  0.73918000  0.88668000  1.0
  C  C365  1  0.30866000  0.72945000  0.90922000  1.0
  C  C366  1  0.25676000  0.72794000  0.91320000  1.0
  C  C367  1  0.22300000  0.73564000  0.89481000  1.0
  C  C368  1  0.38582000  0.70982000  0.92497000  1.0
  C  C369  1  0.42572000  0.70787000  0.94422000  1.0
  C  C370  1  0.41522000  0.70957000  0.96975000  1.0
  C  C371  1  0.69742000  0.61348000  0.21434000  1.0
  C  C372  1  0.73234000  0.61345000  0.23393000  1.0
  C  C373  1  0.77638000  0.59938000  0.23231000  1.0
  C  C374  1  0.78696000  0.58540000  0.21086000  1.0
  C  C375  1  0.75199000  0.58532000  0.19141000  1.0
  C  C376  1  0.70780000  0.59924000  0.19307000  1.0
  C  C377  1  0.87653000  0.57573000  0.21878000  1.0
  C  C378  1  0.91853000  0.55741000  0.21940000  1.0
  C  C379  1  0.90936000  0.53157000  0.21970000  1.0
  C  C380  1  0.96570000  0.39183000  0.23113000  1.0
  C  C381  1  0.94621000  0.40892000  0.24840000  1.0
  C  C382  1  0.94747000  0.43450000  0.24366000  1.0
  C  C383  1  0.96757000  0.44362000  0.22133000  1.0
  C  C384  1  0.98690000  0.42663000  0.20404000  1.0
  C  C385  1  0.98574000  0.40100000  0.20877000  1.0
  C  C386  1  0.93802000  0.48729000  0.22379000  1.0
  C  C387  1  0.94895000  0.51443000  0.22207000  1.0
  C  C388  1  0.99820000  0.52344000  0.22476000  1.0
  C  C389  1  0.19609000  0.62267000  0.25316000  1.0
  C  C390  1  0.16248000  0.60956000  0.26843000  1.0
  C  C391  1  0.12436000  0.59508000  0.25815000  1.0
  C  C392  1  0.11883000  0.59335000  0.23231000  1.0
  C  C393  1  0.15247000  0.60628000  0.21695000  1.0
  C  C394  1  0.19129000  0.62060000  0.22727000  1.0
  C  C395  1  0.05948000  0.55825000  0.23051000  1.0
  C  C396  1  0.00822000  0.54912000  0.22466000  1.0
  C  C397  1  0.96824000  0.56592000  0.22176000  1.0
  C  C398  1  0.58890000  0.25246000  0.89970000  1.0
  C  C399  1  0.58840000  0.27672000  0.90957000  1.0
  C  C400  1  0.57880000  0.28058000  0.93476000  1.0
  C  C401  1  0.56954000  0.26027000  0.95052000  1.0
  C  C402  1  0.57027000  0.23610000  0.94075000  1.0
  C  C403  1  0.58046000  0.23217000  0.91564000  1.0
  C  C404  1  0.58190000  0.27938000  0.99162000  1.0
  C  C405  1  0.56665000  0.28182000  0.01787000  1.0
  C  C406  1  0.51573000  0.28362000  0.02428000  1.0
  C  C407  1  0.28659000  0.28395000  0.10917000  1.0
  C  C408  1  0.29102000  0.29220000  0.08450000  1.0
  C  C409  1  0.33834000  0.29589000  0.07388000  1.0
  C  C410  1  0.38194000  0.29151000  0.08783000  1.0
  C  C411  1  0.37756000  0.28389000  0.11258000  1.0
  C  C412  1  0.33043000  0.27992000  0.12313000  1.0
  C  C413  1  0.44698000  0.28540000  0.05589000  1.0
  C  C414  1  0.50108000  0.28514000  0.04923000  1.0
  C  C415  1  0.53817000  0.28443000  0.06776000  1.0
  C  C416  1  0.78162000  0.25375000  0.13185000  1.0
  C  C417  1  0.79176000  0.27556000  0.11827000  1.0
  C  C418  1  0.75746000  0.28415000  0.10051000  1.0
  C  C419  1  0.71254000  0.27120000  0.09623000  1.0
  C  C420  1  0.70355000  0.24890000  0.10909000  1.0
  C  C421  1  0.73737000  0.24044000  0.12687000  1.0
  C  C422  1  0.62652000  0.27922000  0.08218000  1.0
  C  C423  1  0.58938000  0.28259000  0.06177000  1.0
  C  C424  1  0.60324000  0.28153000  0.03661000  1.0
  C  C425  1  0.30946000  0.39988000  0.79032000  1.0
  C  C426  1  0.28364000  0.40497000  0.76814000  1.0
  C  C427  1  0.23753000  0.41723000  0.76864000  1.0
  C  C428  1  0.21634000  0.42459000  0.79132000  1.0
  C  C429  1  0.24191000  0.41949000  0.81346000  1.0
  C  C430  1  0.28848000  0.40755000  0.81297000  1.0
  C  C431  1  0.15214000  0.45389000  0.77652000  1.0
  C  C432  1  0.09886000  0.46136000  0.77529000  1.0
  C  C433  1  0.06085000  0.44341000  0.77713000  1.0
  C  C434  1  0.81680000  0.37404000  0.76936000  1.0
  C  C435  1  0.83082000  0.38364000  0.74608000  1.0
  C  C436  1  0.86688000  0.40259000  0.74439000  1.0
  C  C437  1  0.88987000  0.41207000  0.76583000  1.0
  C  C438  1  0.87490000  0.40294000  0.78908000  1.0
  C  C439  1  0.83920000  0.38402000  0.79081000  1.0
  C  C440  1  0.97130000  0.43041000  0.77714000  1.0
  C  C441  1  0.01017000  0.45003000  0.77455000  1.0
  C  C442  1  0.99762000  0.47517000  0.77051000  1.0
  C  C443  1  0.04431000  0.61606000  0.76273000  1.0
  C  C444  1  0.04122000  0.59884000  0.74314000  1.0
  C  C445  1  0.04150000  0.57325000  0.74786000  1.0
  C  C446  1  0.04508000  0.56436000  0.77230000  1.0
  C  C447  1  0.04881000  0.58149000  0.79185000  1.0
  C  C448  1  0.04784000  0.60712000  0.78719000  1.0
  C  C449  1  0.02258000  0.52009000  0.76583000  1.0
  C  C450  1  0.03541000  0.49348000  0.76934000  1.0
  C  C451  1  0.08593000  0.48629000  0.77126000  1.0
  C  C452  1  0.25805000  0.17781000  0.25384000  1.0
  C  C453  1  0.27071000  0.15587000  0.26573000  1.0
  C  C454  1  0.32269000  0.15581000  0.26511000  1.0
  C  C455  1  0.65049000  0.23325000  0.65659000  1.0
  C  C456  1  0.69924000  0.23927000  0.65026000  1.0
  C  C457  1  0.71352000  0.22015000  0.63453000  1.0
  C  C458  1  0.05822000  0.86428000  0.73036000  1.0
  C  C459  1  0.10854000  0.86905000  0.73430000  1.0
  C  C460  1  0.11832000  0.88957000  0.71952000  1.0
  C  C461  1  0.66627000  0.75558000  0.32435000  1.0
  C  C462  1  0.67855000  0.76827000  0.34579000  1.0
  C  C463  1  0.73047000  0.76835000  0.34579000  1.0
  C  C464  1  0.29635000  0.66385000  0.27344000  1.0
  C  C465  1  0.27753000  0.64870000  0.25483000  1.0
  C  C466  1  0.23306000  0.63963000  0.26479000  1.0
  C  C467  1  0.88030000  0.23615000  0.17473000  1.0
  C  C468  1  0.86557000  0.25124000  0.15528000  1.0
  C  C469  1  0.81602000  0.24447000  0.15130000  1.0
  C  C470  1  0.41892000  0.36160000  0.78012000  1.0
  C  C471  1  0.37340000  0.37013000  0.77155000  1.0
  C  C472  1  0.35737000  0.38610000  0.78996000  1.0
  C  C473  1  0.84407000  0.73525000  0.86090000  1.0
  C  C474  1  0.79273000  0.73747000  0.86302000  1.0
  C  C475  1  0.78114000  0.72359000  0.88381000  1.0
  C  C476  1  0.76025000  0.83077000  0.75804000  1.0
  C  C477  1  0.74360000  0.84990000  0.74292000  1.0
  C  C478  1  0.69177000  0.84896000  0.74549000  1.0
  C  C479  1  0.37190000  0.77026000  0.36736000  1.0
  C  C480  1  0.32472000  0.76218000  0.37396000  1.0
  C  C481  1  0.30861000  0.77963000  0.39098000  1.0
  C  C482  1  0.96116000  0.14590000  0.28122000  1.0
  C  C483  1  0.91076000  0.14217000  0.27683000  1.0
  C  C484  1  0.89757000  0.12353000  0.29325000  1.0
  C  C485  1  0.35044000  0.26876000  0.67208000  1.0
  C  C486  1  0.33674000  0.25305000  0.65291000  1.0
  C  C487  1  0.28554000  0.25706000  0.65054000  1.0
  C  C488  1  0.71340000  0.32998000  0.76674000  1.0
  C  C489  1  0.74594000  0.34524000  0.75378000  1.0
  C  C490  1  0.77798000  0.35436000  0.77196000  1.0
  C  C491  1  0.14087000  0.76617000  0.83131000  1.0
  C  C492  1  0.15488000  0.75152000  0.85124000  1.0
  C  C493  1  0.20610000  0.75558000  0.85326000  1.0
  C  C494  1  0.58760000  0.65108000  0.22806000  1.0
  C  C495  1  0.63635000  0.64477000  0.23403000  1.0
  C  C496  1  0.64943000  0.62738000  0.21621000  1.0
  C  C497  1  0.17453000  0.26838000  0.14390000  1.0
  C  C498  1  0.22582000  0.26630000  0.14142000  1.0
  C  C499  1  0.23646000  0.27991000  0.12029000  1.0
  C  C500  1  0.03688000  0.24292000  0.33431000  1.0
  C  C501  1  0.04221000  0.22719000  0.35442000  1.0
  C  C502  1  0.02516000  0.24133000  0.37419000  1.0
  C  C503  1  0.53471000  0.17278000  0.73437000  1.0
  C  C504  1  0.50921000  0.15495000  0.72081000  1.0
  C  C505  1  0.53045000  0.13273000  0.72860000  1.0
  C  C506  1  0.97319000  0.77417000  0.67238000  1.0
  C  C507  1  0.95625000  0.78874000  0.65294000  1.0
  C  C508  1  0.98483000  0.78076000  0.63300000  1.0
  C  C509  1  0.53318000  0.82974000  0.26068000  1.0
  C  C510  1  0.53570000  0.85058000  0.27570000  1.0
  C  C511  1  0.55527000  0.86882000  0.26026000  1.0
  C  C512  1  0.47575000  0.73890000  0.17382000  1.0
  C  C513  1  0.46613000  0.72198000  0.15508000  1.0
  C  C514  1  0.47620000  0.73528000  0.13360000  1.0
  C  C515  1  0.98410000  0.32520000  0.23874000  1.0
  C  C516  1  0.98911000  0.34590000  0.22373000  1.0
  C  C517  1  0.96696000  0.36487000  0.23731000  1.0
  C  C518  1  0.59049000  0.25161000  0.83263000  1.0
  C  C519  1  0.58630000  0.26533000  0.85414000  1.0
  C  C520  1  0.59524000  0.24821000  0.87275000  1.0
  C  C521  1  0.03278000  0.68325000  0.75896000  1.0
  C  C522  1  0.03141000  0.66213000  0.77356000  1.0
  C  C523  1  0.04399000  0.64312000  0.75737000  1.0
  N  N524  1  0.00850000  0.21389000  0.47659000  1.0
  N  N525  1  0.90250000  0.20666000  0.58562000  1.0
  N  N526  1  0.14648000  0.22254000  0.57734000  1.0
  N  N527  1  0.53753000  0.91503000  0.71170000  1.0
  N  N528  1  0.30483000  0.94300000  0.71062000  1.0
  N  N529  1  0.48002000  0.03213000  0.70301000  1.0
  N  N530  1  0.98453000  0.81191000  0.53148000  1.0
  N  N531  1  0.10935000  0.78324000  0.43100000  1.0
  N  N532  1  0.86694000  0.79582000  0.42342000  1.0
  N  N533  1  0.46255000  0.07813000  0.28851000  1.0
  N  N534  1  0.59372000  0.97224000  0.28049000  1.0
  N  N535  1  0.70139000  0.08045000  0.30302000  1.0
  N  N536  1  0.47164000  0.70259000  0.03228000  1.0
  N  N537  1  0.58395000  0.71627000  0.92618000  1.0
  N  N538  1  0.34296000  0.72311000  0.92885000  1.0
  N  N539  1  0.83070000  0.56968000  0.20924000  1.0
  N  N540  1  0.97267000  0.46997000  0.21688000  1.0
  N  N541  1  0.07643000  0.58052000  0.22177000  1.0
  N  N542  1  0.55632000  0.26395000  0.97608000  1.0
  N  N543  1  0.43105000  0.29556000  0.07766000  1.0
  N  N544  1  0.67701000  0.28023000  0.07826000  1.0
  N  N545  1  0.16722000  0.43546000  0.79215000  1.0
  N  N546  1  0.92781000  0.43109000  0.76384000  1.0
  N  N547  1  0.04996000  0.53817000  0.77733000  1.0
  N  N548  1  0.33913000  0.17661000  0.25370000  1.0
  N  N549  1  0.29985000  0.18990000  0.24673000  1.0
  N  N550  1  0.67529000  0.20392000  0.63194000  1.0
  N  N551  1  0.63692000  0.21193000  0.64527000  1.0
  N  N552  1  0.07598000  0.89635000  0.70760000  1.0
  N  N553  1  0.03948000  0.88095000  0.71415000  1.0
  N  N554  1  0.74733000  0.75655000  0.32536000  1.0
  N  N555  1  0.70828000  0.74867000  0.31238000  1.0
  N  N556  1  0.22662000  0.64899000  0.28774000  1.0
  N  N557  1  0.26493000  0.66369000  0.29296000  1.0
  N  N558  1  0.80280000  0.22664000  0.16764000  1.0
  N  N559  1  0.84186000  0.22157000  0.18185000  1.0
  N  N560  1  0.39167000  0.38681000  0.80835000  1.0
  N  N561  1  0.42933000  0.37192000  0.80230000  1.0
  N  N562  1  0.82356000  0.71382000  0.89338000  1.0
  N  N563  1  0.86189000  0.72085000  0.87937000  1.0
  N  N564  1  0.67934000  0.83035000  0.76108000  1.0
  N  N565  1  0.72085000  0.81937000  0.76873000  1.0
  N  N566  1  0.34462000  0.79702000  0.39415000  1.0
  N  N567  1  0.38327000  0.79129000  0.37978000  1.0
  N  N568  1  0.93828000  0.11668000  0.30648000  1.0
  N  N569  1  0.97700000  0.13035000  0.29920000  1.0
  N  N570  1  0.27059000  0.27406000  0.66735000  1.0
  N  N571  1  0.30999000  0.28118000  0.68040000  1.0
  N  N572  1  0.76503000  0.34458000  0.79408000  1.0
  N  N573  1  0.72558000  0.33000000  0.79095000  1.0
  N  N574  1  0.22089000  0.77156000  0.83541000  1.0
  N  N575  1  0.18127000  0.77805000  0.82214000  1.0
  N  N576  1  0.61037000  0.62393000  0.20064000  1.0
  N  N577  1  0.57274000  0.63827000  0.20789000  1.0
  N  N578  1  0.19356000  0.28934000  0.11092000  1.0
  N  N579  1  0.15586000  0.28236000  0.12533000  1.0
  N  N580  1  0.01083000  0.26395000  0.36600000  1.0
  N  N581  1  0.01779000  0.26488000  0.34175000  1.0
  N  N582  1  0.56629000  0.13745000  0.74562000  1.0
  N  N583  1  0.56874000  0.16178000  0.74920000  1.0
  N  N584  1  0.01631000  0.76261000  0.64042000  1.0
  N  N585  1  0.00917000  0.75858000  0.66433000  1.0
  N  N586  1  0.56373000  0.85900000  0.23763000  1.0
  N  N587  1  0.55023000  0.83531000  0.23787000  1.0
  N  N588  1  0.49083000  0.75855000  0.13959000  1.0
  N  N589  1  0.49066000  0.76073000  0.16401000  1.0
  N  N590  1  0.94960000  0.35552000  0.25889000  1.0
  N  N591  1  0.96015000  0.33146000  0.25980000  1.0
  N  N592  1  0.60470000  0.22575000  0.86258000  1.0
  N  N593  1  0.60176000  0.22781000  0.83814000  1.0
  N  N594  1  0.05269000  0.65273000  0.73466000  1.0
  N  N595  1  0.04571000  0.67711000  0.73562000  1.0
  O  O596  1  0.04814000  0.29545000  0.19618000  1.0
  O  O597  1  0.99007000  0.26128000  0.16760000  1.0
  O  O598  1  0.16849000  0.18032000  0.26330000  1.0
  O  O599  1  0.20306000  0.20177000  0.22741000  1.0
  O  O600  1  0.12868000  0.22901000  0.24582000  1.0
  O  O601  1  0.08707000  0.18542000  0.22678000  1.0
  O  O602  1  0.11180000  0.25175000  0.21986000  1.0
  O  O603  1  0.14594000  0.18354000  0.17828000  1.0
  O  O604  1  0.21183000  0.21431000  0.21303000  1.0
  O  O605  1  0.08087000  0.21797000  0.30254000  1.0
  O  O606  1  0.14539000  0.17128000  0.27590000  1.0
  O  O607  1  0.11039000  0.20700000  0.30128000  1.0
  O  O608  1  0.12672000  0.28228000  0.26773000  1.0
  O  O609  1  0.16602000  0.24117000  0.17905000  1.0
  O  O610  1  0.09582000  0.26334000  0.16465000  1.0
  O  O611  1  0.03652000  0.25410000  0.29171000  1.0
  O  O612  1  0.97388000  0.17536000  0.24857000  1.0
  O  O613  1  0.03967000  0.16732000  0.27605000  1.0
  O  O614  1  0.96743000  0.25035000  0.17830000  1.0
  O  O615  1  0.93742000  0.21512000  0.20229000  1.0
  O  O616  1  0.02656000  0.29483000  0.21184000  1.0
  O  O617  1  0.01285000  0.28594000  0.25377000  1.0
  O  O618  1  0.01000000  0.23891000  0.23102000  1.0
  O  O619  1  0.05509000  0.21680000  0.18947000  1.0
  O  O620  1  0.02326000  0.22148000  0.25223000  1.0
  O  O621  1  0.00354000  0.16562000  0.19323000  1.0
  O  O622  1  0.92951000  0.20205000  0.21616000  1.0
  O  O623  1  0.01258000  0.27431000  0.27692000  1.0
  O  O624  1  0.46955000  0.21567000  0.70427000  1.0
  O  O625  1  0.53215000  0.23618000  0.66583000  1.0
  O  O626  1  0.49799000  0.33937000  0.77725000  1.0
  O  O627  1  0.43172000  0.33109000  0.74746000  1.0
  O  O628  1  0.48218000  0.28829000  0.75657000  1.0
  O  O629  1  0.54578000  0.32142000  0.73117000  1.0
  O  O630  1  0.46518000  0.26725000  0.73210000  1.0
  O  O631  1  0.47056000  0.33818000  0.69143000  1.0
  O  O632  1  0.40603000  0.32262000  0.73534000  1.0
  O  O633  1  0.56096000  0.28458000  0.80472000  1.0
  O  O634  1  0.53251000  0.34200000  0.78579000  1.0
  O  O635  1  0.54331000  0.30047000  0.80664000  1.0
  O  O636  1  0.45407000  0.23759000  0.78080000  1.0
  O  O637  1  0.40455000  0.29039000  0.69952000  1.0
  O  O638  1  0.43667000  0.25600000  0.67790000  1.0
  O  O639  1  0.56904000  0.24365000  0.79035000  1.0
  O  O640  1  0.66415000  0.30767000  0.73619000  1.0
  O  O641  1  0.62648000  0.32359000  0.77216000  1.0
  O  O642  1  0.56714000  0.24061000  0.67266000  1.0
  O  O643  1  0.63703000  0.26517000  0.68836000  1.0
  O  O644  1  0.49926000  0.21053000  0.71519000  1.0
  O  O645  1  0.54406000  0.21310000  0.75232000  1.0
  O  O646  1  0.57058000  0.25681000  0.72765000  1.0
  O  O647  1  0.52660000  0.28860000  0.69262000  1.0
  O  O648  1  0.58492000  0.27372000  0.74873000  1.0
  O  O649  1  0.61555000  0.32459000  0.68616000  1.0
  O  O650  1  0.66207000  0.27474000  0.69963000  1.0
  O  O651  1  0.56599000  0.22236000  0.77445000  1.0
  O  O652  1  0.89334000  0.80332000  0.70987000  1.0
  O  O653  1  0.94303000  0.84654000  0.72948000  1.0
  O  O654  1  0.92511000  0.74116000  0.84063000  1.0
  O  O655  1  0.85246000  0.76481000  0.82709000  1.0
  O  O656  1  0.91046000  0.75560000  0.78784000  1.0
  O  O657  1  0.96288000  0.78812000  0.81901000  1.0
  O  O658  1  0.88856000  0.77859000  0.76308000  1.0
  O  O659  1  0.87570000  0.82329000  0.83088000  1.0
  O  O660  1  0.82494000  0.77436000  0.81681000  1.0
  O  O661  1  0.99949000  0.71262000  0.79003000  1.0
  O  O662  1  0.96123000  0.73532000  0.84487000  1.0
  O  O663  1  0.98612000  0.71134000  0.80674000  1.0
  O  O664  1  0.89071000  0.72696000  0.73872000  1.0
  O  O665  1  0.81829000  0.80788000  0.78230000  1.0
  O  O666  1  0.84875000  0.82983000  0.74773000  1.0
  O  O667  1  0.00558000  0.72400000  0.74811000  1.0
  O  O668  1  0.08312000  0.78893000  0.80629000  1.0
  O  O669  1  0.05437000  0.75368000  0.82747000  1.0
  O  O670  1  0.97870000  0.84247000  0.73528000  1.0
  O  O671  1  0.04925000  0.83170000  0.76162000  1.0
  O  O672  1  0.92607000  0.79369000  0.70661000  1.0
  O  O673  1  0.97599000  0.75857000  0.71367000  1.0
  O  O674  1  0.99284000  0.78811000  0.75513000  1.0
  O  O675  1  0.93774000  0.82256000  0.78316000  1.0
  O  O676  1  0.01065000  0.76899000  0.77425000  1.0
  O  O677  1  0.02205000  0.83695000  0.81973000  1.0
  O  O678  1  0.07582000  0.82212000  0.77209000  1.0
  O  O679  1  0.00173000  0.73842000  0.72498000  1.0
  O  O680  1  0.47985000  0.80054000  0.30763000  1.0
  O  O681  1  0.55289000  0.77312000  0.33540000  1.0
  O  O682  1  0.37926000  0.67385000  0.25587000  1.0
  O  O683  1  0.34885000  0.69449000  0.29306000  1.0
  O  O684  1  0.40923000  0.72607000  0.26830000  1.0
  O  O685  1  0.46709000  0.68684000  0.28687000  1.0
  O  O686  1  0.42500000  0.75099000  0.29102000  1.0
  O  O687  1  0.42197000  0.68484000  0.33900000  1.0
  O  O688  1  0.33961000  0.70771000  0.30683000  1.0
  O  O689  1  0.44591000  0.71416000  0.20960000  1.0
  O  O690  1  0.40152000  0.66588000  0.24231000  1.0
  O  O691  1  0.41958000  0.70188000  0.21350000  1.0
  O  O692  1  0.39193000  0.77711000  0.24273000  1.0
  O  O693  1  0.38416000  0.73995000  0.33549000  1.0
  O  O694  1  0.44851000  0.76862000  0.34390000  1.0
  O  O695  1  0.48340000  0.75324000  0.21538000  1.0
  O  O696  1  0.57595000  0.68225000  0.25944000  1.0
  O  O697  1  0.50691000  0.66896000  0.23604000  1.0
  O  O698  1  0.57594000  0.76275000  0.32438000  1.0
  O  O699  1  0.61128000  0.72843000  0.30082000  1.0
  O  O700  1  0.49954000  0.80008000  0.29130000  1.0
  O  O701  1  0.50646000  0.78883000  0.24955000  1.0
  O  O702  1  0.52666000  0.74455000  0.27498000  1.0
  O  O703  1  0.49792000  0.72302000  0.32015000  1.0
  O  O704  1  0.51371000  0.72485000  0.25578000  1.0
  O  O705  1  0.56242000  0.67566000  0.31664000  1.0
  O  O706  1  0.61955000  0.71510000  0.28740000  1.0
  O  O707  1  0.50421000  0.77549000  0.22711000  1.0
  O  O708  1  0.07996000  0.23548000  0.48851000  1.0
  O  O709  1  0.88707000  0.23495000  0.55400000  1.0
  O  O710  1  0.09324000  0.20021000  0.60308000  1.0
  O  O711  1  0.57022000  0.94921000  0.73268000  1.0
  O  O712  1  0.34511000  0.92411000  0.74399000  1.0
  O  O713  1  0.40520000  0.03202000  0.72500000  1.0
  O  O714  1  0.91692000  0.78670000  0.52124000  1.0
  O  O715  1  0.12311000  0.80975000  0.46437000  1.0
  O  O716  1  0.92735000  0.76884000  0.40789000  1.0
  O  O717  1  0.52256000  0.09571000  0.26261000  1.0
  O  O718  1  0.51412000  0.98187000  0.29512000  1.0
  O  O719  1  0.72393000  0.04145000  0.28819000  1.0
  O  O720  1  0.40430000  0.72693000  0.01989000  1.0
  O  O721  1  0.59816000  0.68665000  0.95703000  1.0
  O  O722  1  0.39365000  0.69933000  0.90323000  1.0
  O  O723  1  0.88482000  0.59848000  0.22696000  1.0
  O  O724  1  0.89333000  0.48013000  0.23138000  1.0
  O  O725  1  0.08834000  0.54469000  0.24503000  1.0
  O  O726  1  0.62339000  0.29037000  0.98414000  1.0
  O  O727  1  0.41492000  0.27391000  0.04123000  1.0
  O  O728  1  0.60960000  0.27471000  0.10471000  1.0
  O  O729  1  0.18514000  0.46566000  0.76263000  1.0
  O  O730  1  0.98153000  0.41093000  0.79111000  1.0
  O  O731  1  0.98338000  0.52604000  0.75221000  1.0
