# generated using pymatgen
data_CoH6C9O4
_symmetry_space_group_name_H-M   'P 1'
_cell_length_a   44.89390000
_cell_length_b   44.89390000
_cell_length_c   44.89390000
_cell_angle_alpha   90.00000000
_cell_angle_beta   90.00000000
_cell_angle_gamma   90.00000000
_symmetry_Int_Tables_number   1
_chemical_formula_structural   CoH6C9O4
_chemical_formula_sum   'Co48 H288 C432 O192'
_cell_volume   90481.96102896
_cell_formula_units_Z   48
loop_
 _symmetry_equiv_pos_site_id
 _symmetry_equiv_pos_as_xyz
  1  'x, y, z'
loop_
 _atom_site_type_symbol
 _atom_site_label
 _atom_site_symmetry_multiplicity
 _atom_site_fract_x
 _atom_site_fract_y
 _atom_site_fract_z
 _atom_site_occupancy
  Co  Co0  1  0.25260000  0.27798000  0.45618000  1.0
  Co  Co1  1  0.32318000  0.28827000  0.46306000  1.0
  Co  Co2  1  0.00575000  0.99481000  0.66734000  1.0
  Co  Co3  1  0.96555000  0.05241000  0.65366000  1.0
  Co  Co4  1  0.23955000  0.75707000  0.93552000  1.0
  Co  Co5  1  0.20574000  0.70092000  0.90679000  1.0
  Co  Co6  1  0.50114000  0.00720000  0.19159000  1.0
  Co  Co7  1  0.52944000  0.94301000  0.17732000  1.0
  Co  Co8  1  0.72594000  0.21750000  0.61955000  1.0
  Co  Co9  1  0.79714000  0.21518000  0.61354000  1.0
  Co  Co10  1  0.05358000  0.46270000  0.85544000  1.0
  Co  Co11  1  0.09177000  0.52274000  0.84798000  1.0
  Co  Co12  1  0.77714000  0.78774000  0.07892000  1.0
  Co  Co13  1  0.72163000  0.82115000  0.10967000  1.0
  Co  Co14  1  0.52450000  0.55363000  0.34707000  1.0
  Co  Co15  1  0.48046000  0.50326000  0.37275000  1.0
  Co  Co16  1  0.45159000  0.23498000  0.30763000  1.0
  Co  Co17  1  0.42239000  0.28620000  0.34812000  1.0
  Co  Co18  1  0.01246000  0.19110000  0.50595000  1.0
  Co  Co19  1  0.95714000  0.14915000  0.52339000  1.0
  Co  Co20  1  0.10419000  0.75747000  0.72626000  1.0
  Co  Co21  1  0.09633000  0.69917000  0.76716000  1.0
  Co  Co22  1  0.44842000  0.83702000  0.02055000  1.0
  Co  Co23  1  0.51819000  0.84321000  0.03593000  1.0
  Co  Co24  1  0.91998000  0.26177000  0.75122000  1.0
  Co  Co25  1  0.88846000  0.22079000  0.70161000  1.0
  Co  Co26  1  0.99887000  0.69477000  0.96332000  1.0
  Co  Co27  1  0.06147000  0.66162000  0.95293000  1.0
  Co  Co28  1  0.59273000  0.78412000  0.24163000  1.0
  Co  Co29  1  0.60144000  0.85238000  0.22202000  1.0
  Co  Co30  1  0.56784000  0.36066000  0.51447000  1.0
  Co  Co31  1  0.51031000  0.39648000  0.49102000  1.0
  Co  Co32  1  0.30038000  0.43271000  0.26689000  1.0
  Co  Co33  1  0.33767000  0.39969000  0.31833000  1.0
  Co  Co34  1  0.78778000  0.04945000  0.78487000  1.0
  Co  Co35  1  0.82165000  0.04095000  0.72232000  1.0
  Co  Co36  1  0.17038000  0.54208000  0.06331000  1.0
  Co  Co37  1  0.15577000  0.58091000  0.00501000  1.0
  Co  Co38  1  0.75037000  0.96738000  0.24601000  1.0
  Co  Co39  1  0.71055000  0.96577000  0.18655000  1.0
  Co  Co40  1  0.37093000  0.50088000  0.53520000  1.0
  Co  Co41  1  0.38327000  0.48467000  0.46664000  1.0
  Co  Co42  1  0.25713000  0.58121000  0.76197000  1.0
  Co  Co43  1  0.22053000  0.59477000  0.82189000  1.0
  Co  Co44  1  0.63152000  0.98882000  0.98769000  1.0
  Co  Co45  1  0.58589000  0.95557000  0.03176000  1.0
  Co  Co46  1  0.83588000  0.02744000  0.48383000  1.0
  Co  Co47  1  0.83480000  0.06429000  0.54520000  1.0
  H  H48  1  0.10246000  0.20967000  0.48296000  1.0
  H  H49  1  0.14765000  0.23356000  0.46411000  1.0
  H  H50  1  0.07167000  0.29448000  0.51627000  1.0
  H  H51  1  0.11705000  0.31807000  0.49793000  1.0
  H  H52  1  0.16156000  0.31732000  0.47006000  1.0
  H  H53  1  0.15641000  0.29292000  0.43944000  1.0
  H  H54  1  0.02854000  0.90280000  0.65987000  1.0
  H  H55  1  0.05864000  0.85749000  0.65735000  1.0
  H  H56  1  0.07905000  0.93183000  0.73646000  1.0
  H  H57  1  0.10883000  0.88631000  0.73393000  1.0
  H  H58  1  0.12984000  0.84851000  0.70041000  1.0
  H  H59  1  0.11130000  0.83965000  0.66666667  1.0
  H  H60  1  0.27403000  0.80857000  0.03767000  1.0
  H  H61  1  0.31358000  0.83957000  0.05831000  1.0
  H  H62  1  0.31591000  0.81295000  0.95119000  1.0
  H  H63  1  0.35510000  0.84453000  0.97178000  1.0
  H  H64  1  0.36082000  0.86351000  0.05408000  1.0
  H  H65  1  0.35135000  0.88879000  0.02450000  1.0
  H  H66  1  0.51795000  0.10166000  0.19624000  1.0
  H  H67  1  0.52909000  0.14882000  0.22083000  1.0
  H  H68  1  0.44650000  0.08619000  0.25881000  1.0
  H  H69  1  0.45799000  0.13329000  0.28349000  1.0
  H  H70  1  0.50918000  0.16106000  0.29622000  1.0
  H  H71  1  0.52782000  0.17747000  0.26502000  1.0
  H  H72  1  0.61750000  0.22310000  0.57312000  1.0
  H  H73  1  0.61033000  0.26617000  0.54105000  1.0
  H  H74  1  0.70250000  0.25808000  0.60128000  1.0
  H  H75  1  0.69488000  0.30159000  0.56960000  1.0
  H  H76  1  0.66385000  0.33182000  0.53867000  1.0
  H  H77  1  0.65065000  0.30753000  0.51008000  1.0
  H  H78  1  0.93584000  0.34240000  0.80117000  1.0
  H  H79  1  0.95539000  0.37910000  0.83641000  1.0
  H  H80  1  0.02245000  0.30067000  0.79704000  1.0
  H  H81  1  0.04183000  0.33757000  0.83203000  1.0
  H  H82  1  0.02955000  0.37004000  0.87413000  1.0
  H  H83  1  0.99266000  0.38406000  0.87822000  1.0
  H  H84  1  0.85523000  0.79816000  0.02345000  1.0
  H  H85  1  0.89581000  0.79132000  0.98789000  1.0
  H  H86  1  0.84650000  0.70268000  0.03157000  1.0
  H  H87  1  0.88708000  0.69605000  0.99575000  1.0
  H  H88  1  0.92169000  0.76071000  0.95338000  1.0
  H  H89  1  0.90679000  0.72470000  0.94656000  1.0
  H  H90  1  0.61224000  0.68941000  0.24543000  1.0
  H  H91  1  0.61713000  0.64175000  0.27100000  1.0
  H  H92  1  0.52379000  0.69951000  0.28188000  1.0
  H  H93  1  0.52900000  0.65201000  0.30778000  1.0
  H  H94  1  0.58119000  0.62782000  0.33550000  1.0
  H  H95  1  0.60165000  0.60786000  0.30765000  1.0
  H  H96  1  0.26713000  0.44551000  0.17989000  1.0
  H  H97  1  0.22847000  0.45517000  0.14280000  1.0
  H  H98  1  0.24521000  0.52821000  0.22394000  1.0
  H  H99  1  0.20678000  0.53778000  0.18662000  1.0
  H  H100  1  0.16919000  0.51246000  0.15597000  1.0
  H  H101  1  0.17689000  0.47687000  0.14049000  1.0
  H  H102  1  0.68879000  0.07583000  0.93302000  1.0
  H  H103  1  0.73045000  0.08630000  0.89976000  1.0
  H  H104  1  0.70332000  0.98144000  0.92179000  1.0
  H  H105  1  0.74563000  0.99209000  0.88889000  1.0
  H  H106  1  0.78769000  0.03222000  0.88448000  1.0
  H  H107  1  0.77713000  0.07012000  0.87955000  1.0
  H  H108  1  0.77781000  0.94251000  0.33512000  1.0
  H  H109  1  0.80776000  0.93926000  0.38050000  1.0
  H  H110  1  0.80001000  0.03587000  0.32754000  1.0
  H  H111  1  0.82996000  0.03236000  0.37281000  1.0
  H  H112  1  0.86399000  0.99550000  0.39889000  1.0
  H  H113  1  0.85068000  0.95868000  0.40665000  1.0
  H  H114  1  0.26137000  0.53624000  0.67567000  1.0
  H  H115  1  0.28021000  0.50461000  0.63526000  1.0
  H  H116  1  0.35122000  0.56505000  0.69430000  1.0
  H  H117  1  0.36977000  0.53357000  0.65408000  1.0
  H  H118  1  0.32300000  0.47386000  0.62017000  1.0
  H  H119  1  0.35999000  0.48371000  0.63055000  1.0
  H  H120  1  0.31797000  0.41824000  0.46307000  1.0
  H  H121  1  0.28586000  0.37464000  0.46829000  1.0
  H  H122  1  0.33163000  0.41944000  0.55829000  1.0
  H  H123  1  0.30032000  0.37526000  0.56331000  1.0
  H  H124  1  0.24768000  0.35154000  0.51824000  1.0
  H  H125  1  0.27444000  0.33407000  0.54200000  1.0
  H  H126  1  0.94283000  0.06107000  0.74661000  1.0
  H  H127  1  0.90348000  0.05592000  0.78389000  1.0
  H  H128  1  0.94022000  0.96627000  0.73075000  1.0
  H  H129  1  0.90030000  0.96133000  0.76755000  1.0
  H  H130  1  0.87382000  0.01758000  0.81823000  1.0
  H  H131  1  0.86465000  0.98299000  0.80120000  1.0
  H  H132  1  0.20919000  0.72063000  0.02110000  1.0
  H  H133  1  0.19827000  0.68872000  0.06406000  1.0
  H  H134  1  0.25050000  0.64634000  0.97643000  1.0
  H  H135  1  0.24104000  0.61484000  0.01995000  1.0
  H  H136  1  0.19360000  0.64031000  0.08570000  1.0
  H  H137  1  0.22704000  0.61937000  0.08149000  1.0
  H  H138  1  0.58338000  0.04552000  0.21013000  1.0
  H  H139  1  0.63311000  0.06040000  0.22657000  1.0
  H  H140  1  0.59920000  0.95640000  0.24241000  1.0
  H  H141  1  0.64863000  0.97166000  0.25997000  1.0
  H  H142  1  0.67917000  0.02566000  0.27612000  1.0
  H  H143  1  0.68183000  0.04797000  0.24305000  1.0
  H  H144  1  0.79288000  0.18386000  0.52532000  1.0
  H  H145  1  0.79768000  0.14479000  0.48783000  1.0
  H  H146  1  0.71817000  0.13755000  0.56434000  1.0
  H  H147  1  0.72337000  0.09813000  0.52680000  1.0
  H  H148  1  0.77203000  0.10011000  0.46141000  1.0
  H  H149  1  0.74787000  0.07736000  0.48293000  1.0
  H  H150  1  0.20603000  0.49756000  0.82631000  1.0
  H  H151  1  0.16654000  0.46005000  0.82748000  1.0
  H  H152  1  0.17689000  0.52586000  0.73928000  1.0
  H  H153  1  0.13659000  0.48897000  0.74091000  1.0
  H  H154  1  0.12531000  0.43120000  0.79567000  1.0
  H  H155  1  0.10712000  0.45297000  0.76790000  1.0
  H  H156  1  0.62986000  0.87506000  0.03046000  1.0
  H  H157  1  0.66184000  0.83115000  0.03053000  1.0
  H  H158  1  0.70392000  0.92884000  0.00057000  1.0
  H  H159  1  0.73594000  0.88467000  0.00122000  1.0
  H  H160  1  0.73962000  0.83007000  0.99949000  1.0
  H  H161  1  0.70743000  0.80806000  0.00607000  1.0
  H  H162  1  0.34507000  0.51650000  0.29402000  1.0
  H  H163  1  0.38282000  0.55581000  0.29811000  1.0
  H  H164  1  0.41453000  0.45060000  0.28645000  1.0
  H  H165  1  0.45220000  0.48999000  0.28871000  1.0
  H  H166  1  0.43336000  0.57161000  0.30400000  1.0
  H  H167  1  0.45575000  0.55322000  0.27705000  1.0
  H  H168  1  0.52441000  0.27827000  0.48300000  1.0
  H  H169  1  0.50892000  0.23801000  0.44957000  1.0
  H  H170  1  0.51582000  0.34130000  0.41108000  1.0
  H  H171  1  0.50232000  0.30094000  0.37715000  1.0
  H  H172  1  0.48470000  0.22257000  0.40406000  1.0
  H  H173  1  0.51523000  0.23189000  0.38049000  1.0
  H  H174  1  0.93314000  0.21813000  0.58310000  1.0
  H  H175  1  0.92598000  0.24901000  0.62719000  1.0
  H  H176  1  0.02575000  0.20659000  0.60577000  1.0
  H  H177  1  0.01808000  0.23590000  0.65134000  1.0
  H  H178  1  0.96080000  0.28677000  0.66155000  1.0
  H  H179  1  0.98845000  0.26751000  0.68201000  1.0
  H  H180  1  0.99959000  0.73753000  0.87751000  1.0
  H  H181  1  0.01152000  0.76631000  0.83268000  1.0
  H  H182  1  0.09359000  0.72465000  0.89368000  1.0
  H  H183  1  0.10527000  0.75382000  0.84934000  1.0
  H  H184  1  0.08323000  0.79695000  0.81501000  1.0
  H  H185  1  0.04702000  0.79085000  0.80070000  1.0
  H  H186  1  0.52710000  0.85326000  0.16767000  1.0
  H  H187  1  0.48722000  0.84752000  0.13120000  1.0
  H  H188  1  0.54566000  0.75897000  0.16210000  1.0
  H  H189  1  0.50620000  0.75365000  0.12482000  1.0
  H  H190  1  0.44772000  0.80497000  0.11311000  1.0
  H  H191  1  0.46501000  0.77325000  0.09725000  1.0
  H  H192  1  0.33287000  0.32698000  0.37902000  1.0
  H  H193  1  0.32837000  0.34560000  0.32825000  1.0
  H  H194  1  0.24040000  0.34852000  0.39490000  1.0
  H  H195  1  0.23629000  0.36767000  0.34410000  1.0
  H  H196  1  0.25469000  0.35593000  0.29274000  1.0
  H  H197  1  0.29293000  0.34877000  0.28658000  1.0
  H  H198  1  0.84845000  0.02540000  0.58106000  1.0
  H  H199  1  0.87667000  0.00875000  0.62473000  1.0
  H  H200  1  0.90966000  0.97819000  0.52385000  1.0
  H  H201  1  0.93783000  0.96180000  0.56749000  1.0
  H  H202  1  0.93450000  0.94915000  0.62110000  1.0
  H  H203  1  0.90876000  0.96823000  0.64449000  1.0
  H  H204  1  0.29157000  0.67140000  0.78501000  1.0
  H  H205  1  0.30192000  0.70894000  0.82354000  1.0
  H  H206  1  0.27099000  0.60724000  0.85354000  1.0
  H  H207  1  0.28251000  0.64419000  0.89180000  1.0
  H  H208  1  0.31205000  0.69337000  0.90221000  1.0
  H  H209  1  0.30923000  0.72234000  0.87554000  1.0
  H  H210  1  0.55808000  0.04541000  0.11741000  1.0
  H  H211  1  0.57166000  0.05836000  0.06586000  1.0
  H  H212  1  0.52511000  0.96049000  0.08682000  1.0
  H  H213  1  0.53701000  0.97406000  0.03560000  1.0
  H  H214  1  0.56391000  0.04923000  0.01194000  1.0
  H  H215  1  0.54618000  0.01606000  0.99990000  1.0
  H  H216  1  0.72061000  0.15934000  0.69201000  1.0
  H  H217  1  0.71567000  0.11205000  0.71826000  1.0
  H  H218  1  0.80488000  0.13039000  0.65570000  1.0
  H  H219  1  0.79945000  0.08277000  0.68176000  1.0
  H  H220  1  0.75948000  0.04598000  0.69700000  1.0
  H  H221  1  0.72660000  0.05913000  0.71549000  1.0
  H  H222  1  0.16474000  0.54285000  0.96651000  1.0
  H  H223  1  0.15367000  0.51819000  0.91927000  1.0
  H  H224  1  0.12349000  0.47025000  0.01415000  1.0
  H  H225  1  0.11198000  0.44584000  0.96676000  1.0
  H  H226  1  0.12410000  0.43914000  0.91536000  1.0
  H  H227  1  0.15144000  0.46334000  0.89937000  1.0
  H  H228  1  0.74549000  0.95309000  0.14942000  1.0
  H  H229  1  0.75831000  0.92360000  0.10539000  1.0
  H  H230  1  0.80557000  0.89984000  0.20237000  1.0
  H  H231  1  0.81837000  0.87048000  0.15824000  1.0
  H  H232  1  0.82161000  0.87126000  0.10167000  1.0
  H  H233  1  0.79353000  0.89010000  0.08095000  1.0
  H  H234  1  0.44559000  0.55808000  0.51663000  1.0
  H  H235  1  0.48037000  0.57932000  0.48027000  1.0
  H  H236  1  0.38275000  0.54053000  0.44610000  1.0
  H  H237  1  0.41705000  0.56273000  0.40995000  1.0
  H  H238  1  0.46159000  0.60340000  0.40740000  1.0
  H  H239  1  0.49226000  0.59581000  0.43091000  1.0
  H  H240  1  0.27910000  0.22994000  0.37736000  1.0
  H  H241  1  0.31846000  0.21193000  0.34429000  1.0
  H  H242  1  0.34339000  0.24064000  0.44803000  1.0
  H  H243  1  0.38273000  0.22221000  0.41487000  1.0
  H  H244  1  0.36760000  0.19144000  0.33765000  1.0
  H  H245  1  0.39010000  0.18575000  0.36935000  1.0
  H  H246  1  0.03757000  0.01151000  0.57649000  1.0
  H  H247  1  0.04660000  0.04553000  0.53496000  1.0
  H  H248  1  0.00756000  0.08523000  0.63033000  1.0
  H  H249  1  0.01763000  0.11946000  0.58914000  1.0
  H  H250  1  0.06301000  0.11565000  0.53908000  1.0
  H  H251  1  0.04369000  0.09342000  0.51259000  1.0
  H  H252  1  0.17374000  0.72086000  0.87452000  1.0
  H  H253  1  0.16186000  0.70866000  0.82330000  1.0
  H  H254  1  0.23053000  0.79246000  0.84466000  1.0
  H  H255  1  0.21703000  0.78137000  0.79301000  1.0
  H  H256  1  0.19347000  0.71214000  0.76958000  1.0
  H  H257  1  0.19533000  0.74996000  0.75663000  1.0
  H  H258  1  0.49551000  0.91654000  0.15614000  1.0
  H  H259  1  0.49570000  0.89600000  0.10594000  1.0
  H  H260  1  0.43440000  0.98510000  0.12770000  1.0
  H  H261  1  0.43311000  0.96345000  0.07821000  1.0
  H  H262  1  0.48972000  0.93460000  0.04858000  1.0
  H  H263  1  0.45059000  0.92910000  0.04215000  1.0
  H  H264  1  0.80497000  0.27313000  0.61900000  1.0
  H  H265  1  0.84538000  0.29762000  0.64590000  1.0
  H  H266  1  0.75448000  0.26621000  0.70048000  1.0
  H  H267  1  0.79556000  0.29029000  0.72765000  1.0
  H  H268  1  0.84349000  0.31849000  0.72651000  1.0
  H  H269  1  0.86232000  0.32414000  0.69220000  1.0
  H  H270  1  0.00111000  0.51472000  0.92110000  1.0
  H  H271  1  0.98071000  0.56262000  0.93738000  1.0
  H  H272  1  0.05362000  0.55996000  0.85447000  1.0
  H  H273  1  0.03297000  0.60773000  0.87065000  1.0
  H  H274  1  0.98281000  0.62813000  0.88981000  1.0
  H  H275  1  0.96678000  0.61250000  0.92207000  1.0
  H  H276  1  0.68421000  0.84415000  0.18536000  1.0
  H  H277  1  0.73370000  0.83316000  0.16592000  1.0
  H  H278  1  0.66542000  0.74988000  0.19077000  1.0
  H  H279  1  0.71502000  0.73915000  0.17067000  1.0
  H  H280  1  0.76700000  0.75676000  0.16702000  1.0
  H  H281  1  0.77509000  0.79515000  0.16896000  1.0
  H  H282  1  0.58409000  0.52019000  0.41820000  1.0
  H  H283  1  0.60409000  0.47834000  0.44692000  1.0
  H  H284  1  0.52063000  0.46118000  0.37660000  1.0
  H  H285  1  0.54127000  0.41923000  0.40467000  1.0
  H  H286  1  0.60990000  0.42579000  0.45398000  1.0
  H  H287  1  0.59467000  0.40243000  0.42620000  1.0
  H  H288  1  0.43394000  0.32735000  0.29506000  1.0
  H  H289  1  0.40921000  0.36907000  0.27033000  1.0
  H  H290  1  0.37613000  0.26573000  0.24937000  1.0
  H  H291  1  0.34995000  0.30781000  0.22600000  1.0
  H  H292  1  0.34497000  0.36049000  0.21575000  1.0
  H  H293  1  0.37738000  0.38243000  0.22116000  1.0
  H  H294  1  0.84394000  0.13082000  0.71260000  1.0
  H  H295  1  0.85508000  0.18397000  0.71533000  1.0
  H  H296  1  0.83351000  0.12830000  0.80824000  1.0
  H  H297  1  0.84529000  0.18136000  0.81082000  1.0
  H  H298  1  0.84203000  0.22868000  0.78501000  1.0
  H  H299  1  0.84038000  0.22951000  0.74537000  1.0
  H  H300  1  0.07489000  0.67379000  0.01993000  1.0
  H  H301  1  0.10266000  0.63778000  0.04986000  1.0
  H  H302  1  0.99829000  0.61588000  0.02059000  1.0
  H  H303  1  0.02672000  0.57885000  0.04919000  1.0
  H  H304  1  0.07216000  0.56119000  0.07047000  1.0
  H  H305  1  0.08863000  0.59057000  0.09104000  1.0
  H  H306  1  0.71840000  0.87821000  0.27061000  1.0
  H  H307  1  0.68580000  0.84085000  0.29364000  1.0
  H  H308  1  0.64147000  0.92170000  0.23290000  1.0
  H  H309  1  0.60892000  0.88619000  0.25814000  1.0
  H  H310  1  0.60600000  0.85161000  0.30330000  1.0
  H  H311  1  0.63667000  0.82740000  0.31143000  1.0
  H  H312  1  0.47538000  0.47448000  0.48352000  1.0
  H  H313  1  0.52527000  0.45907000  0.49898000  1.0
  H  H314  1  0.43882000  0.43691000  0.56411000  1.0
  H  H315  1  0.48876000  0.42012000  0.57876000  1.0
  H  H316  1  0.54318000  0.42881000  0.57434000  1.0
  H  H317  1  0.55811000  0.44670000  0.54264000  1.0
  H  H318  1  0.21087000  0.64957000  0.71241000  1.0
  H  H319  1  0.17308000  0.67780000  0.68485000  1.0
  H  H320  1  0.14395000  0.62291000  0.77614000  1.0
  H  H321  1  0.10629000  0.65030000  0.74807000  1.0
  H  H322  1  0.09185000  0.66955000  0.69826000  1.0
  H  H323  1  0.11961000  0.68267000  0.67258000  1.0
  H  H324  1  0.54061000  0.84463000  0.98607000  1.0
  H  H325  1  0.57811000  0.87932000  0.96679000  1.0
  H  H326  1  0.47085000  0.90354000  0.95603000  1.0
  H  H327  1  0.50837000  0.93834000  0.93724000  1.0
  H  H328  1  0.55951000  0.95142000  0.92678000  1.0
  H  H329  1  0.58681000  0.92294000  0.92782000  1.0
  H  H330  1  0.92188000  0.06266000  0.46350000  1.0
  H  H331  1  0.96175000  0.09458000  0.44457000  1.0
  H  H332  1  0.87807000  0.13951000  0.50110000  1.0
  H  H333  1  0.91739000  0.17165000  0.48089000  1.0
  H  H334  1  0.95583000  0.17274000  0.43475000  1.0
  H  H335  1  0.98143000  0.14269000  0.43313000  1.0
  C  C336  1  0.28451000  0.24852000  0.43484000  1.0
  C  C337  1  0.28758000  0.31825000  0.41859000  1.0
  C  C338  1  0.19162000  0.28116000  0.46934000  1.0
  C  C339  1  0.27729000  0.32039000  0.49701000  1.0
  C  C340  1  0.01737000  0.02551000  0.63182000  1.0
  C  C341  1  0.94895000  0.99196000  0.63700000  1.0
  C  C342  1  0.03706000  0.95070000  0.69658000  1.0
  C  C343  1  0.96253000  0.01815000  0.70877000  1.0
  C  C344  1  0.21464000  0.76085000  0.89424000  1.0
  C  C345  1  0.26854000  0.71211000  0.89828000  1.0
  C  C346  1  0.26717000  0.79060000  0.98002000  1.0
  C  C347  1  0.23006000  0.70240000  0.96743000  1.0
  C  C348  1  0.47439000  0.97230000  0.17104000  1.0
  C  C349  1  0.53329000  0.99292000  0.13660000  1.0
  C  C350  1  0.47880000  0.05891000  0.21502000  1.0
  C  C351  1  0.55948000  0.99002000  0.21129000  1.0
  C  C352  1  0.75434000  0.25013000  0.64147000  1.0
  C  C353  1  0.76321000  0.17505000  0.65155000  1.0
  C  C354  1  0.66257000  0.21201000  0.61166000  1.0
  C  C355  1  0.75628000  0.18436000  0.57336000  1.0
  C  C356  1  0.03789000  0.50467000  0.87389000  1.0
  C  C357  1  0.10657000  0.47569000  0.89006000  1.0
  C  C358  1  0.02048000  0.41082000  0.85091000  1.0
  C  C359  1  0.10087000  0.46894000  0.81234000  1.0
  C  C360  1  0.76575000  0.77932000  0.12533000  1.0
  C  C361  1  0.77919000  0.84908000  0.09972000  1.0
  C  C362  1  0.82125000  0.75512000  0.05001000  1.0
  C  C363  1  0.73185000  0.81858000  0.04530000  1.0
  C  C364  1  0.54075000  0.51828000  0.37577000  1.0
  C  C365  1  0.48434000  0.56285000  0.39751000  1.0
  C  C366  1  0.55687000  0.59351000  0.31282000  1.0
  C  C367  1  0.46620000  0.54289000  0.32255000  1.0
  C  C368  1  0.42321000  0.26868000  0.28796000  1.0
  C  C369  1  0.39948000  0.22581000  0.34565000  1.0
  C  C370  1  0.48496000  0.19576000  0.27438000  1.0
  C  C371  1  0.47252000  0.24849000  0.36671000  1.0
  C  C372  1  0.98535000  0.17028000  0.47162000  1.0
  C  C373  1  0.01912000  0.13060000  0.52752000  1.0
  C  C374  1  0.05404000  0.23687000  0.50810000  1.0
  C  C375  1  0.98395000  0.19300000  0.56341000  1.0
  C  C376  1  0.10826000  0.71312000  0.70744000  1.0
  C  C377  1  0.15126000  0.73319000  0.76386000  1.0
  C  C378  1  0.09654000  0.81448000  0.70380000  1.0
  C  C379  1  0.07965000  0.75978000  0.78548000  1.0
  C  C380  1  0.48047000  0.85249000  0.98744000  1.0
  C  C381  1  0.47520000  0.88931000  0.04876000  1.0
  C  C382  1  0.39089000  0.86268000  0.01784000  1.0
  C  C383  1  0.47407000  0.81373000  0.07433000  1.0
  C  C384  1  0.88424000  0.23131000  0.76317000  1.0
  C  C385  1  0.87155000  0.28224000  0.71277000  1.0
  C  C386  1  0.96493000  0.29392000  0.77838000  1.0
  C  C387  1  0.94364000  0.25460000  0.69188000  1.0
  C  C388  1  0.01951000  0.66830000  0.99801000  1.0
  C  C389  1  0.00518000  0.63948000  0.92989000  1.0
  C  C390  1  0.94587000  0.72586000  0.97404000  1.0
  C  C391  1  0.03885000  0.70989000  0.91522000  1.0
  C  C392  1  0.61184000  0.81635000  0.27227000  1.0
  C  C393  1  0.64195000  0.80475000  0.20446000  1.0
  C  C394  1  0.56712000  0.72995000  0.25182000  1.0
  C  C395  1  0.56264000  0.80995000  0.19109000  1.0
  C  C396  1  0.55158000  0.39991000  0.53770000  1.0
  C  C397  1  0.56916000  0.40452000  0.46612000  1.0
  C  C398  1  0.61679000  0.32872000  0.53659000  1.0
  C  C399  1  0.52831000  0.33722000  0.46997000  1.0
  C  C400  1  0.28214000  0.39455000  0.29017000  1.0
  C  C401  1  0.34508000  0.38630000  0.25586000  1.0
  C  C402  1  0.27671000  0.47668000  0.23140000  1.0
  C  C403  1  0.35460000  0.45668000  0.29066000  1.0
  C  C404  1  0.76510000  0.05710000  0.74292000  1.0
  C  C405  1  0.82643000  0.09454000  0.75819000  1.0
  C  C406  1  0.76787000  0.04141000  0.84255000  1.0
  C  C407  1  0.84490000  0.02082000  0.78018000  1.0
  C  C408  1  0.15550000  0.52124000  0.02233000  1.0
  C  C409  1  0.11464000  0.57459000  0.05436000  1.0
  C  C410  1  0.19150000  0.51296000  0.11379000  1.0
  C  C411  1  0.18937000  0.60286000  0.05688000  1.0
  C  C412  1  0.76712000  0.94642000  0.20583000  1.0
  C  C413  1  0.70146000  0.92605000  0.23701000  1.0
  C  C414  1  0.77290000  0.99040000  0.29773000  1.0
  C  C415  1  0.69823000  0.00395000  0.23774000  1.0
  C  C416  1  0.39166000  0.53252000  0.50521000  1.0
  C  C417  1  0.42362000  0.46856000  0.51433000  1.0
  C  C418  1  0.34387000  0.50403000  0.59041000  1.0
  C  C419  1  0.34635000  0.44889000  0.50725000  1.0
  C  C420  1  0.27254000  0.61421000  0.79400000  1.0
  C  C421  1  0.20292000  0.61659000  0.76318000  1.0
  C  C422  1  0.29503000  0.56695000  0.71658000  1.0
  C  C423  1  0.21262000  0.54140000  0.78565000  1.0
  C  C424  1  0.59301000  0.01205000  0.00591000  1.0
  C  C425  1  0.58378000  0.94905000  0.96762000  1.0
  C  C426  1  0.67015000  0.02192000  0.95329000  1.0
  C  C427  1  0.64431000  0.93174000  0.01391000  1.0
  C  C428  1  0.85885000  0.01087000  0.52295000  1.0
  C  C429  1  0.87312000  0.07923000  0.49515000  1.0
  C  C430  1  0.83144000  0.99280000  0.43359000  1.0
  C  C431  1  0.79369000  0.07452000  0.49556000  1.0
  C  C432  1  0.08338000  0.25023000  0.50098000  1.0
  C  C433  1  0.13161000  0.24682000  0.47627000  1.0
  C  C434  1  0.10567000  0.23322000  0.48699000  1.0
  C  C435  1  0.13607000  0.27756000  0.47993000  1.0
  C  C436  1  0.08835000  0.28077000  0.50555000  1.0
  C  C437  1  0.11441000  0.29426000  0.49515000  1.0
  C  C438  1  0.16100000  0.29340000  0.46375000  1.0
  C  C439  1  0.05169000  0.92116000  0.69810000  1.0
  C  C440  1  0.06284000  0.87338000  0.67499000  1.0
  C  C441  1  0.04563000  0.89931000  0.67649000  1.0
  C  C442  1  0.08633000  0.86878000  0.69512000  1.0
  C  C443  1  0.07400000  0.91560000  0.71937000  1.0
  C  C444  1  0.09106000  0.88958000  0.71796000  1.0
  C  C445  1  0.10763000  0.84315000  0.69084000  1.0
  C  C446  1  0.29187000  0.80826000  0.99282000  1.0
  C  C447  1  0.31459000  0.83344000  0.03501000  1.0
  C  C448  1  0.29182000  0.81589000  0.02313000  1.0
  C  C449  1  0.33795000  0.84373000  0.01691000  1.0
  C  C450  1  0.31538000  0.81825000  0.97470000  1.0
  C  C451  1  0.33796000  0.83617000  0.98652000  1.0
  C  C452  1  0.35975000  0.86605000  0.02947000  1.0
  C  C453  1  0.48164000  0.08994000  0.22584000  1.0
  C  C454  1  0.51052000  0.13566000  0.22880000  1.0
  C  C455  1  0.50416000  0.10861000  0.21475000  1.0
  C  C456  1  0.49451000  0.14453000  0.25419000  1.0
  C  C457  1  0.46414000  0.09995000  0.24983000  1.0
  C  C458  1  0.47058000  0.12695000  0.26393000  1.0
  C  C459  1  0.50579000  0.16971000  0.27327000  1.0
  C  C460  1  0.66049000  0.23720000  0.59028000  1.0
  C  C461  1  0.63035000  0.26481000  0.55442000  1.0
  C  C462  1  0.63467000  0.24002000  0.57268000  1.0
  C  C463  1  0.65144000  0.28782000  0.55375000  1.0
  C  C464  1  0.68232000  0.25949000  0.58843000  1.0
  C  C465  1  0.67780000  0.28459000  0.57040000  1.0
  C  C466  1  0.64701000  0.31444000  0.53356000  1.0
  C  C467  1  0.97749000  0.31833000  0.79666000  1.0
  C  C468  1  0.97024000  0.36231000  0.82754000  1.0
  C  C469  1  0.95910000  0.34129000  0.80741000  1.0
  C  C470  1  0.99995000  0.36079000  0.83720000  1.0
  C  C471  1  0.00762000  0.31785000  0.80516000  1.0
  C  C472  1  0.01877000  0.33897000  0.82512000  1.0
  C  C473  1  0.01092000  0.38079000  0.86184000  1.0
  C  C474  1  0.84736000  0.75098000  0.03014000  1.0
  C  C475  1  0.88544000  0.77185000  0.99761000  1.0
  C  C476  1  0.86211000  0.77573000  0.01789000  1.0
  C  C477  1  0.89452000  0.74314000  0.98909000  1.0
  C  C478  1  0.85724000  0.72224000  0.02245000  1.0
  C  C479  1  0.88053000  0.71838000  0.00207000  1.0
  C  C480  1  0.91675000  0.73899000  0.96415000  1.0
  C  C481  1  0.56779000  0.69847000  0.26186000  1.0
  C  C482  1  0.59628000  0.65373000  0.27276000  1.0
  C  C483  1  0.59353000  0.68112000  0.25818000  1.0
  C  C484  1  0.57332000  0.64302000  0.29122000  1.0
  C  C485  1  0.54399000  0.68677000  0.27862000  1.0
  C  C486  1  0.54682000  0.65945000  0.29334000  1.0
  C  C487  1  0.57966000  0.61802000  0.31282000  1.0
  C  C488  1  0.25882000  0.48581000  0.20523000  1.0
  C  C489  1  0.23257000  0.47158000  0.15999000  1.0
  C  C490  1  0.25469000  0.46611000  0.18123000  1.0
  C  C491  1  0.21432000  0.49686000  0.16234000  1.0
  C  C492  1  0.24233000  0.51241000  0.20596000  1.0
  C  C493  1  0.22034000  0.51794000  0.18462000  1.0
  C  C494  1  0.18643000  0.49946000  0.14383000  1.0
  C  C495  1  0.69297000  0.02780000  0.93024000  1.0
  C  C496  1  0.72446000  0.06334000  0.90406000  1.0
  C  C497  1  0.70068000  0.05730000  0.92318000  1.0
  C  C498  1  0.74133000  0.04002000  0.89192000  1.0
  C  C499  1  0.70872000  0.00438000  0.91673000  1.0
  C  C500  1  0.73285000  0.01045000  0.89788000  1.0
  C  C501  1  0.76985000  0.04680000  0.87544000  1.0
  C  C502  1  0.78700000  0.98931000  0.32745000  1.0
  C  C503  1  0.80576000  0.96052000  0.36929000  1.0
  C  C504  1  0.78867000  0.96240000  0.34334000  1.0
  C  C505  1  0.82153000  0.98545000  0.37966000  1.0
  C  C506  1  0.80114000  0.01473000  0.33907000  1.0
  C  C507  1  0.81822000  0.01281000  0.36497000  1.0
  C  C508  1  0.84375000  0.98236000  0.40449000  1.0
  C  C509  1  0.30485000  0.55276000  0.68847000  1.0
  C  C510  1  0.29573000  0.51827000  0.64767000  1.0
  C  C511  1  0.28496000  0.53641000  0.67070000  1.0
  C  C512  1  0.32650000  0.51627000  0.64209000  1.0
  C  C513  1  0.33535000  0.55243000  0.68126000  1.0
  C  C514  1  0.34603000  0.53448000  0.65823000  1.0
  C  C515  1  0.33885000  0.49282000  0.62141000  1.0
  C  C516  1  0.32754000  0.42208000  0.51024000  1.0
  C  C517  1  0.29617000  0.38395000  0.48800000  1.0
  C  C518  1  0.31450000  0.40892000  0.48503000  1.0
  C  C519  1  0.29141000  0.37099000  0.51612000  1.0
  C  C520  1  0.32199000  0.40971000  0.53844000  1.0
  C  C521  1  0.30419000  0.38437000  0.54133000  1.0
  C  C522  1  0.27129000  0.34423000  0.51966000  1.0
  C  C523  1  0.94446000  0.01406000  0.73581000  1.0
  C  C524  1  0.91197000  0.03616000  0.77299000  1.0
  C  C525  1  0.93439000  0.03906000  0.75169000  1.0
  C  C526  1  0.89887000  0.00830000  0.77834000  1.0
  C  C527  1  0.93307000  0.98582000  0.74292000  1.0
  C  C528  1  0.91018000  0.98301000  0.76383000  1.0
  C  C529  1  0.87058000  0.00652000  0.79633000  1.0
  C  C530  1  0.23054000  0.68578000  0.99559000  1.0
  C  C531  1  0.21041000  0.67949000  0.04539000  1.0
  C  C532  1  0.21684000  0.69776000  0.02098000  1.0
  C  C533  1  0.21813000  0.64916000  0.04491000  1.0
  C  C534  1  0.23993000  0.65599000  0.99584000  1.0
  C  C535  1  0.23438000  0.63800000  0.02058000  1.0
  C  C536  1  0.20753000  0.62829000  0.06916000  1.0
  C  C537  1  0.58776000  0.99971000  0.22469000  1.0
  C  C538  1  0.62579000  0.03776000  0.23048000  1.0
  C  C539  1  0.59734000  0.02928000  0.22122000  1.0
  C  C540  1  0.64493000  0.01692000  0.24375000  1.0
  C  C541  1  0.60635000  0.97918000  0.23912000  1.0
  C  C542  1  0.63451000  0.98787000  0.24908000  1.0
  C  C543  1  0.67655000  0.02532000  0.25150000  1.0
  C  C544  1  0.75521000  0.16365000  0.54783000  1.0
  C  C545  1  0.77984000  0.14339000  0.50400000  1.0
  C  C546  1  0.77711000  0.16562000  0.52552000  1.0
  C  C547  1  0.76088000  0.11860000  0.50446000  1.0
  C  C548  1  0.73506000  0.13975000  0.54726000  1.0
  C  C549  1  0.73807000  0.11721000  0.52589000  1.0
  C  C550  1  0.76750000  0.09235000  0.48448000  1.0
  C  C551  1  0.19440000  0.51440000  0.78267000  1.0
  C  C552  1  0.16924000  0.47361000  0.80772000  1.0
  C  C553  1  0.19173000  0.49503000  0.80705000  1.0
  C  C554  1  0.14853000  0.47179000  0.78437000  1.0
  C  C555  1  0.17545000  0.51084000  0.75810000  1.0
  C  C556  1  0.15240000  0.48986000  0.75908000  1.0
  C  C557  1  0.12007000  0.45443000  0.78893000  1.0
  C  C558  1  0.66431000  0.90553000  0.01545000  1.0
  C  C559  1  0.67120000  0.85244000  0.02413000  1.0
  C  C560  1  0.65300000  0.87764000  0.02418000  1.0
  C  C561  1  0.70118000  0.85456000  0.01558000  1.0
  C  C562  1  0.69447000  0.90770000  0.00727000  1.0
  C  C563  1  0.71280000  0.88248000  0.00761000  1.0
  C  C564  1  0.72053000  0.82706000  0.01499000  1.0
  C  C565  1  0.37703000  0.48060000  0.29041000  1.0
  C  C566  1  0.38997000  0.53296000  0.29531000  1.0
  C  C567  1  0.36842000  0.51054000  0.29289000  1.0
  C  C568  1  0.42044000  0.52583000  0.29463000  1.0
  C  C569  1  0.40741000  0.47353000  0.28881000  1.0
  C  C570  1  0.42890000  0.49600000  0.29016000  1.0
  C  C571  1  0.44385000  0.54989000  0.29848000  1.0
  C  C572  1  0.52075000  0.31278000  0.44959000  1.0
  C  C573  1  0.51020000  0.26050000  0.44097000  1.0
  C  C574  1  0.51926000  0.28340000  0.46000000  1.0
  C  C575  1  0.50290000  0.26650000  0.41112000  1.0
  C  C576  1  0.51423000  0.31881000  0.41965000  1.0
  C  C577  1  0.50620000  0.29577000  0.40036000  1.0
  C  C578  1  0.49461000  0.24095000  0.39076000  1.0
  C  C579  1  0.97992000  0.20976000  0.59132000  1.0
  C  C580  1  0.94758000  0.23902000  0.62340000  1.0
  C  C581  1  0.95175000  0.22154000  0.59805000  1.0
  C  C582  1  0.97115000  0.24392000  0.64336000  1.0
  C  C583  1  0.00379000  0.21525000  0.61068000  1.0
  C  C584  1  0.99934000  0.23189000  0.63672000  1.0
  C  C585  1  0.96709000  0.26435000  0.66989000  1.0
  C  C586  1  0.04561000  0.72871000  0.88905000  1.0
  C  C587  1  0.02951000  0.75746000  0.84605000  1.0
  C  C588  1  0.02272000  0.74109000  0.87170000  1.0
  C  C589  1  0.05930000  0.76216000  0.83767000  1.0
  C  C590  1  0.07541000  0.73367000  0.88068000  1.0
  C  C591  1  0.08216000  0.75040000  0.85539000  1.0
  C  C592  1  0.06689000  0.77914000  0.80969000  1.0
  C  C593  1  0.53967000  0.80654000  0.16770000  1.0
  C  C594  1  0.50016000  0.82821000  0.13754000  1.0
  C  C595  1  0.52302000  0.83140000  0.15836000  1.0
  C  C596  1  0.49389000  0.80028000  0.12508000  1.0
  C  C597  1  0.53326000  0.77851000  0.15535000  1.0
  C  C598  1  0.51071000  0.77546000  0.13404000  1.0
  C  C599  1  0.46882000  0.79704000  0.10290000  1.0
  C  C600  1  0.28684000  0.33585000  0.39082000  1.0
  C  C601  1  0.30936000  0.34727000  0.34296000  1.0
  C  C602  1  0.31188000  0.33658000  0.37205000  1.0
  C  C603  1  0.28189000  0.35769000  0.33231000  1.0
  C  C604  1  0.25999000  0.34848000  0.38084000  1.0
  C  C605  1  0.25761000  0.35951000  0.35186000  1.0
  C  C606  1  0.27741000  0.36301000  0.29959000  1.0
  C  C607  1  0.87675000  0.00281000  0.54918000  1.0
  C  C608  1  0.88408000  0.00222000  0.60275000  1.0
  C  C609  1  0.86803000  0.01173000  0.57783000  1.0
  C  C610  1  0.90904000  0.98367000  0.59932000  1.0
  C  C611  1  0.90232000  0.98515000  0.54573000  1.0
  C  C612  1  0.91845000  0.97580000  0.57060000  1.0
  C  C613  1  0.92501000  0.97148000  0.62610000  1.0
  C  C614  1  0.28034000  0.63666000  0.81645000  1.0
  C  C615  1  0.29562000  0.68665000  0.83020000  1.0
  C  C616  1  0.28968000  0.66530000  0.80826000  1.0
  C  C617  1  0.29309000  0.67926000  0.86052000  1.0
  C  C618  1  0.27797000  0.62930000  0.84672000  1.0
  C  C619  1  0.28467000  0.65028000  0.86856000  1.0
  C  C620  1  0.29746000  0.70244000  0.88441000  1.0
  C  C621  1  0.54082000  0.00191000  0.10599000  1.0
  C  C622  1  0.56133000  0.03704000  0.07034000  1.0
  C  C623  1  0.55356000  0.02972000  0.09968000  1.0
  C  C624  1  0.55558000  0.01702000  0.04693000  1.0
  C  C625  1  0.53522000  0.98195000  0.08256000  1.0
  C  C626  1  0.54211000  0.98961000  0.05330000  1.0
  C  C627  1  0.56355000  0.02471000  0.01527000  1.0
  C  C628  1  0.76291000  0.14849000  0.67126000  1.0
  C  C629  1  0.73544000  0.11604000  0.70506000  1.0
  C  C630  1  0.73829000  0.14308000  0.68991000  1.0
  C  C631  1  0.75692000  0.09362000  0.70162000  1.0
  C  C632  1  0.78557000  0.12693000  0.66971000  1.0
  C  C633  1  0.78253000  0.09968000  0.68465000  1.0
  C  C634  1  0.75100000  0.06260000  0.71326000  1.0
  C  C635  1  0.14517000  0.50830000  0.99396000  1.0
  C  C636  1  0.14635000  0.50792000  0.93982000  1.0
  C  C637  1  0.15274000  0.52195000  0.96685000  1.0
  C  C638  1  0.13209000  0.48011000  0.93941000  1.0
  C  C639  1  0.12968000  0.48117000  0.99356000  1.0
  C  C640  1  0.12306000  0.46725000  0.96649000  1.0
  C  C641  1  0.12944000  0.46288000  0.91072000  1.0
  C  C642  1  0.77463000  0.92879000  0.17923000  1.0
  C  C643  1  0.76880000  0.91840000  0.12647000  1.0
  C  C644  1  0.76140000  0.93514000  0.15164000  1.0
  C  C645  1  0.78967000  0.89521000  0.12850000  1.0
  C  C646  1  0.79520000  0.90533000  0.18131000  1.0
  C  C647  1  0.80256000  0.88857000  0.15616000  1.0
  C  C648  1  0.79750000  0.87693000  0.10152000  1.0
  C  C649  1  0.41155000  0.54779000  0.48408000  1.0
  C  C650  1  0.45902000  0.57112000  0.47266000  1.0
  C  C651  1  0.43909000  0.55919000  0.49345000  1.0
  C  C652  1  0.45146000  0.57228000  0.44230000  1.0
  C  C653  1  0.40388000  0.54920000  0.45382000  1.0
  C  C654  1  0.42348000  0.56172000  0.43317000  1.0
  C  C655  1  0.47287000  0.58518000  0.41977000  1.0
  C  C656  1  0.30817000  0.23649000  0.41534000  1.0
  C  C657  1  0.32411000  0.21816000  0.36688000  1.0
  C  C658  1  0.30159000  0.22827000  0.38588000  1.0
  C  C659  1  0.35357000  0.21575000  0.37708000  1.0
  C  C660  1  0.33769000  0.23440000  0.42546000  1.0
  C  C661  1  0.36018000  0.22400000  0.40653000  1.0
  C  C662  1  0.37754000  0.20317000  0.35705000  1.0
  C  C663  1  0.02169000  0.04579000  0.60643000  1.0
  C  C664  1  0.03765000  0.05438000  0.55553000  1.0
  C  C665  1  0.03267000  0.03495000  0.57930000  1.0
  C  C666  1  0.03190000  0.08500000  0.55849000  1.0
  C  C667  1  0.01570000  0.07631000  0.60946000  1.0
  C  C668  1  0.02127000  0.09586000  0.58587000  1.0
  C  C669  1  0.04086000  0.10595000  0.53375000  1.0
  C  C670  1  0.20353000  0.75724000  0.86354000  1.0
  C  C671  1  0.17609000  0.72760000  0.82757000  1.0
  C  C672  1  0.18329000  0.73435000  0.85700000  1.0
  C  C673  1  0.18814000  0.74432000  0.80404000  1.0
  C  C674  1  0.21489000  0.77466000  0.84022000  1.0
  C  C675  1  0.20719000  0.76828000  0.81070000  1.0
  C  C676  1  0.18356000  0.73468000  0.77217000  1.0
  C  C677  1  0.46596000  0.95322000  0.14554000  1.0
  C  C678  1  0.48119000  0.91460000  0.11077000  1.0
  C  C679  1  0.48138000  0.92667000  0.13951000  1.0
  C  C680  1  0.46435000  0.92808000  0.08806000  1.0
  C  C681  1  0.44688000  0.96486000  0.12370000  1.0
  C  C682  1  0.44617000  0.95248000  0.09525000  1.0
  C  C683  1  0.46995000  0.92148000  0.05562000  1.0
  C  C684  1  0.77669000  0.26780000  0.65774000  1.0
  C  C685  1  0.82542000  0.29137000  0.65790000  1.0
  C  C686  1  0.80238000  0.27724000  0.64262000  1.0
  C  C687  1  0.82338000  0.29609000  0.68869000  1.0
  C  C688  1  0.77399000  0.27351000  0.68833000  1.0
  C  C689  1  0.79738000  0.28727000  0.70380000  1.0
  C  C690  1  0.85029000  0.30716000  0.70558000  1.0
  C  C691  1  0.02869000  0.53364000  0.88636000  1.0
  C  C692  1  0.99705000  0.56227000  0.91965000  1.0
  C  C693  1  0.00864000  0.53491000  0.91029000  1.0
  C  C694  1  0.00512000  0.58871000  0.90502000  1.0
  C  C695  1  0.03816000  0.56028000  0.87295000  1.0
  C  C696  1  0.02644000  0.58760000  0.88220000  1.0
  C  C697  1  0.98857000  0.61724000  0.91128000  1.0
  C  C698  1  0.67080000  0.79786000  0.18982000  1.0
  C  C699  1  0.71871000  0.81489000  0.17070000  1.0
  C  C700  1  0.69034000  0.82109000  0.18190000  1.0
  C  C701  1  0.72811000  0.78536000  0.16685000  1.0
  C  C702  1  0.67992000  0.76828000  0.18508000  1.0
  C  C703  1  0.70824000  0.76211000  0.17348000  1.0
  C  C704  1  0.75994000  0.77879000  0.15822000  1.0
  C  C705  1  0.55086000  0.49385000  0.39523000  1.0
  C  C706  1  0.58569000  0.47445000  0.43183000  1.0
  C  C707  1  0.57426000  0.49834000  0.41544000  1.0
  C  C708  1  0.57421000  0.44562000  0.42792000  1.0
  C  C709  1  0.53858000  0.46526000  0.39217000  1.0
  C  C710  1  0.55036000  0.44129000  0.40815000  1.0
  C  C711  1  0.58856000  0.41932000  0.44322000  1.0
  C  C712  1  0.40663000  0.29345000  0.27431000  1.0
  C  C713  1  0.40163000  0.34663000  0.26581000  1.0
  C  C714  1  0.41560000  0.32281000  0.28007000  1.0
  C  C715  1  0.37754000  0.34166000  0.24648000  1.0
  C  C716  1  0.38321000  0.28824000  0.25429000  1.0
  C  C717  1  0.36842000  0.31223000  0.24085000  1.0
  C  C718  1  0.36119000  0.36788000  0.23292000  1.0
  C  C719  1  0.83749000  0.12545000  0.76019000  1.0
  C  C720  1  0.85121000  0.17180000  0.73576000  1.0
  C  C721  1  0.84474000  0.14140000  0.73425000  1.0
  C  C722  1  0.85087000  0.18667000  0.76326000  1.0
  C  C723  1  0.83867000  0.14006000  0.78784000  1.0
  C  C724  1  0.84552000  0.17036000  0.78936000  1.0
  C  C725  1  0.85292000  0.22006000  0.76450000  1.0
  C  C726  1  0.03461000  0.64740000  0.01807000  1.0
  C  C727  1  0.08004000  0.63260000  0.04332000  1.0
  C  C728  1  0.06410000  0.65324000  0.02647000  1.0
  C  C729  1  0.06723000  0.60508000  0.05078000  1.0
  C  C730  1  0.02101000  0.62079000  0.02700000  1.0
  C  C731  1  0.03734000  0.59961000  0.04307000  1.0
  C  C732  1  0.08494000  0.58225000  0.06803000  1.0
  C  C733  1  0.68237000  0.90283000  0.25010000  1.0
  C  C734  1  0.67597000  0.85852000  0.28049000  1.0
  C  C735  1  0.69456000  0.87981000  0.26738000  1.0
  C  C736  1  0.64490000  0.86057000  0.27738000  1.0
  C  C737  1  0.65140000  0.90421000  0.24615000  1.0
  C  C738  1  0.63281000  0.88375000  0.26029000  1.0
  C  C739  1  0.62468000  0.83897000  0.29313000  1.0
  C  C740  1  0.45322000  0.45678000  0.52260000  1.0
  C  C741  1  0.50646000  0.45355000  0.51300000  1.0
  C  C742  1  0.47793000  0.46235000  0.50421000  1.0
  C  C743  1  0.51075000  0.43827000  0.53992000  1.0
  C  C744  1  0.45748000  0.44147000  0.54954000  1.0
  C  C745  1  0.48597000  0.43191000  0.55792000  1.0
  C  C746  1  0.54172000  0.42952000  0.54966000  1.0
  C  C747  1  0.18038000  0.63386000  0.74636000  1.0
  C  C748  1  0.16659000  0.66583000  0.70475000  1.0
  C  C749  1  0.18814000  0.64960000  0.72044000  1.0
  C  C750  1  0.13679000  0.66606000  0.71429000  1.0
  C  C751  1  0.15069000  0.63482000  0.75629000  1.0
  C  C752  1  0.12910000  0.65051000  0.74029000  1.0
  C  C753  1  0.11316000  0.68200000  0.69646000  1.0
  C  C754  1  0.50285000  0.87138000  0.97246000  1.0
  C  C755  1  0.55473000  0.88452000  0.96400000  1.0
  C  C756  1  0.53331000  0.86476000  0.97500000  1.0
  C  C757  1  0.54606000  0.91140000  0.95053000  1.0
  C  C758  1  0.49416000  0.89773000  0.95803000  1.0
  C  C759  1  0.51559000  0.91769000  0.94738000  1.0
  C  C760  1  0.56931000  0.93400000  0.94137000  1.0
  C  C761  1  0.89697000  0.09868000  0.48375000  1.0
  C  C762  1  0.94359000  0.10460000  0.45685000  1.0
  C  C763  1  0.92075000  0.08641000  0.46756000  1.0
  C  C764  1  0.94272000  0.13549000  0.46152000  1.0
  C  C765  1  0.89627000  0.12951000  0.48884000  1.0
  C  C766  1  0.91869000  0.14784000  0.47735000  1.0
  C  C767  1  0.96659000  0.15521000  0.44848000  1.0
  O  O768  1  0.31386000  0.31133000  0.42996000  1.0
  O  O769  1  0.30529000  0.31573000  0.48881000  1.0
  O  O770  1  0.25405000  0.30567000  0.48665000  1.0
  O  O771  1  0.26186000  0.30771000  0.42848000  1.0
  O  O772  1  0.25594000  0.25008000  0.42649000  1.0
  O  O773  1  0.29003000  0.26541000  0.45862000  1.0
  O  O774  1  0.21273000  0.28728000  0.44994000  1.0
  O  O775  1  0.19828000  0.26796000  0.49461000  1.0
  O  O776  1  0.94244000  0.02049000  0.64042000  1.0
  O  O777  1  0.95678000  0.04245000  0.69294000  1.0
  O  O778  1  0.98082000  0.99642000  0.70050000  1.0
  O  O779  1  0.97437000  0.97954000  0.64499000  1.0
  O  O780  1  0.02849000  0.99791000  0.63329000  1.0
  O  O781  1  0.00002000  0.03164000  0.65489000  1.0
  O  O782  1  0.01649000  0.95593000  0.67641000  1.0
  O  O783  1  0.04754000  0.97311000  0.71225000  1.0
  O  O784  1  0.24407000  0.69703000  0.89193000  1.0
  O  O785  1  0.21793000  0.68840000  0.94446000  1.0
  O  O786  1  0.23931000  0.73040000  0.96726000  1.0
  O  O787  1  0.26954000  0.73526000  0.91642000  1.0
  O  O788  1  0.23571000  0.78046000  0.90206000  1.0
  O  O789  1  0.21040000  0.74024000  0.91505000  1.0
  O  O790  1  0.26987000  0.77894000  0.95331000  1.0
  O  O791  1  0.24234000  0.78670000  0.99505000  1.0
  O  O792  1  0.53794000  0.96457000  0.14318000  1.0
  O  O793  1  0.55875000  0.96340000  0.19869000  1.0
  O  O794  1  0.53739000  0.00934000  0.21087000  1.0
  O  O795  1  0.52033000  0.01259000  0.15458000  1.0
  O  O796  1  0.46604000  0.00092000  0.17184000  1.0
  O  O797  1  0.49913000  0.96799000  0.18698000  1.0
  O  O798  1  0.49796000  0.04818000  0.19563000  1.0
  O  O799  1  0.46057000  0.04038000  0.22850000  1.0
  O  O800  1  0.78847000  0.18311000  0.63872000  1.0
  O  O801  1  0.78320000  0.19402000  0.58082000  1.0
  O  O802  1  0.73129000  0.19088000  0.58790000  1.0
  O  O803  1  0.73744000  0.18821000  0.64656000  1.0
  O  O804  1  0.72629000  0.24504000  0.65038000  1.0
  O  O805  1  0.76158000  0.23384000  0.61803000  1.0
  O  O806  1  0.68735000  0.20346000  0.62498000  1.0
  O  O807  1  0.63810000  0.19745000  0.61842000  1.0
  O  O808  1  0.11320000  0.50066000  0.87593000  1.0
  O  O809  1  0.10512000  0.49778000  0.81757000  1.0
  O  O810  1  0.08152000  0.45186000  0.82672000  1.0
  O  O811  1  0.08257000  0.45949000  0.88496000  1.0
  O  O812  1  0.02728000  0.47831000  0.88292000  1.0
  O  O813  1  0.05765000  0.50165000  0.85216000  1.0
  O  O814  1  0.04470000  0.42291000  0.86206000  1.0
  O  O815  1  0.00250000  0.42697000  0.83439000  1.0
  O  O816  1  0.75099000  0.85039000  0.10814000  1.0
  O  O817  1  0.71509000  0.82512000  0.06877000  1.0
  O  O818  1  0.75748000  0.80402000  0.04636000  1.0
  O  O819  1  0.79229000  0.82518000  0.08864000  1.0
  O  O820  1  0.79240000  0.77260000  0.11380000  1.0
  O  O821  1  0.74746000  0.79041000  0.10484000  1.0
  O  O822  1  0.81079000  0.78199000  0.05537000  1.0
  O  O823  1  0.80763000  0.73193000  0.06159000  1.0
  O  O824  1  0.47317000  0.53561000  0.39757000  1.0
  O  O825  1  0.45953000  0.52128000  0.34166000  1.0
  O  O826  1  0.49130000  0.55851000  0.32273000  1.0
  O  O827  1  0.50477000  0.57241000  0.37859000  1.0
  O  O828  1  0.55552000  0.54388000  0.37206000  1.0
  O  O829  1  0.51599000  0.51726000  0.35965000  1.0
  O  O830  1  0.53928000  0.59075000  0.33612000  1.0
  O  O831  1  0.56067000  0.57055000  0.29507000  1.0
  O  O832  1  0.39808000  0.25346000  0.35572000  1.0
  O  O833  1  0.45270000  0.26990000  0.37174000  1.0
  O  O834  1  0.47400000  0.23235000  0.34213000  1.0
  O  O835  1  0.41956000  0.21607000  0.32641000  1.0
  O  O836  1  0.42821000  0.24244000  0.27464000  1.0
  O  O837  1  0.43757000  0.27110000  0.31368000  1.0
  O  O838  1  0.46583000  0.19781000  0.29647000  1.0
  O  O839  1  0.49117000  0.21964000  0.25865000  1.0
  O  O840  1  0.99051000  0.12629000  0.53307000  1.0
  O  O841  1  0.96237000  0.17413000  0.55615000  1.0
  O  O842  1  0.00715000  0.19967000  0.54630000  1.0
  O  O843  1  0.03020000  0.15488000  0.51529000  1.0
  O  O844  1  0.01263000  0.18092000  0.46618000  1.0
  O  O845  1  0.97711000  0.17496000  0.49961000  1.0
  O  O846  1  0.05030000  0.20789000  0.50642000  1.0
  O  O847  1  0.03071000  0.25403000  0.51242000  1.0
  O  O848  1  0.13560000  0.71043000  0.77406000  1.0
  O  O849  1  0.08194000  0.73068000  0.79030000  1.0
  O  O850  1  0.08796000  0.77341000  0.76074000  1.0
  O  O851  1  0.14113000  0.75342000  0.74500000  1.0
  O  O852  1  0.11884000  0.73732000  0.69367000  1.0
  O  O853  1  0.09406000  0.71986000  0.73254000  1.0
  O  O854  1  0.11593000  0.79527000  0.71443000  1.0
  O  O855  1  0.06839000  0.80681000  0.70128000  1.0
  O  O856  1  0.50312000  0.88006000  0.04728000  1.0
  O  O857  1  0.50114000  0.82424000  0.06888000  1.0
  O  O858  1  0.45100000  0.81658000  0.05628000  1.0
  O  O859  1  0.45181000  0.87344000  0.04062000  1.0
  O  O860  1  0.45113000  0.85692000  0.98477000  1.0
  O  O861  1  0.48689000  0.83604000  0.01121000  1.0
  O  O862  1  0.40711000  0.83953000  0.02597000  1.0
  O  O863  1  0.40325000  0.88523000  0.00388000  1.0
  O  O864  1  0.86856000  0.25685000  0.69806000  1.0
  O  O865  1  0.92228000  0.23631000  0.68285000  1.0
  O  O866  1  0.94510000  0.26660000  0.71872000  1.0
  O  O867  1  0.89174000  0.28717000  0.73374000  1.0
  O  O868  1  0.89318000  0.25351000  0.78089000  1.0
  O  O869  1  0.90132000  0.22918000  0.73898000  1.0
  O  O870  1  0.93707000  0.29482000  0.76937000  1.0
  O  O871  1  0.98081000  0.26988000  0.77308000  1.0
  O  O872  1  0.03448000  0.63763000  0.93226000  1.0
  O  O873  1  0.05979000  0.69066000  0.92334000  1.0
  O  O874  1  0.01273000  0.71320000  0.92877000  1.0
  O  O875  1  0.98888000  0.66090000  0.94164000  1.0
  O  O876  1  0.99032000  0.67451000  0.99820000  1.0
  O  O877  1  0.03345000  0.68048000  0.97513000  1.0
  O  O878  1  0.96066000  0.70874000  0.95538000  1.0
  O  O879  1  0.95822000  0.73415000  0.99925000  1.0
  O  O880  1  0.63260000  0.83267000  0.20311000  1.0
  O  O881  1  0.57333000  0.83715000  0.19552000  1.0
  O  O882  1  0.57011000  0.78618000  0.20694000  1.0
  O  O883  1  0.62805000  0.78326000  0.21928000  1.0
  O  O884  1  0.61470000  0.78699000  0.27618000  1.0
  O  O885  1  0.59526000  0.82277000  0.24861000  1.0
  O  O886  1  0.59115000  0.74278000  0.24090000  1.0
  O  O887  1  0.54436000  0.74692000  0.25902000  1.0
  O  O888  1  0.54077000  0.41205000  0.46774000  1.0
  O  O889  1  0.51112000  0.36121000  0.46895000  1.0
  O  O890  1  0.55148000  0.33366000  0.48784000  1.0
  O  O891  1  0.58198000  0.38400000  0.48293000  1.0
  O  O892  1  0.57940000  0.38970000  0.54097000  1.0
  O  O893  1  0.53551000  0.38279000  0.51962000  1.0
  O  O894  1  0.60389000  0.34010000  0.51283000  1.0
  O  O895  1  0.60437000  0.33194000  0.56291000  1.0
  O  O896  1  0.35012000  0.38026000  0.28424000  1.0
  O  O897  1  0.36005000  0.43331000  0.30788000  1.0
  O  O898  1  0.33064000  0.45997000  0.27387000  1.0
  O  O899  1  0.32700000  0.40765000  0.24625000  1.0
  O  O900  1  0.27161000  0.40406000  0.26405000  1.0
  O  O901  1  0.30367000  0.41223000  0.30054000  1.0
  O  O902  1  0.29114000  0.45120000  0.23111000  1.0
  O  O903  1  0.27312000  0.49054000  0.25695000  1.0
  O  O904  1  0.83274000  0.07919000  0.73382000  1.0
  O  O905  1  0.84682000  0.02394000  0.75082000  1.0
  O  O906  1  0.82215000  0.02977000  0.79655000  1.0
  O  O907  1  0.80934000  0.08475000  0.78014000  1.0
  O  O908  1  0.75466000  0.06772000  0.76876000  1.0
  O  O909  1  0.78935000  0.04059000  0.74655000  1.0
  O  O910  1  0.78127000  0.06001000  0.82429000  1.0
  O  O911  1  0.75826000  0.01570000  0.83239000  1.0
  O  O912  1  0.12099000  0.58430000  0.02730000  1.0
  O  O913  1  0.17625000  0.60664000  0.03060000  1.0
  O  O914  1  0.18832000  0.57808000  0.07284000  1.0
  O  O915  1  0.13270000  0.55812000  0.07071000  1.0
  O  O916  1  0.15305000  0.50781000  0.04885000  1.0
  O  O917  1  0.16839000  0.54775000  0.02439000  1.0
  O  O918  1  0.17106000  0.53095000  0.10306000  1.0
  O  O919  1  0.21261000  0.50278000  0.09625000  1.0
  O  O920  1  0.69303000  0.93738000  0.21115000  1.0
  O  O921  1  0.69390000  0.99619000  0.20953000  1.0
  O  O922  1  0.71952000  0.99336000  0.25509000  1.0
  O  O923  1  0.72493000  0.93505000  0.25245000  1.0
  O  O924  1  0.77931000  0.94171000  0.23260000  1.0
  O  O925  1  0.74528000  0.96636000  0.20707000  1.0
  O  O926  1  0.76115000  0.96634000  0.28584000  1.0
  O  O927  1  0.77502000  0.01462000  0.28141000  1.0
  O  O928  1  0.41735000  0.47069000  0.48562000  1.0
  O  O929  1  0.36002000  0.45336000  0.48144000  1.0
  O  O930  1  0.34834000  0.46676000  0.53054000  1.0
  O  O931  1  0.40597000  0.47804000  0.53602000  1.0
  O  O932  1  0.39380000  0.53491000  0.53488000  1.0
  O  O933  1  0.37451000  0.50985000  0.49704000  1.0
  O  O934  1  0.36831000  0.49621000  0.57620000  1.0
  O  O935  1  0.32183000  0.51627000  0.57555000  1.0
  O  O936  1  0.19759000  0.61190000  0.79182000  1.0
  O  O937  1  0.20850000  0.55680000  0.81051000  1.0
  O  O938  1  0.23025000  0.54949000  0.76331000  1.0
  O  O939  1  0.22672000  0.60659000  0.74883000  1.0
  O  O940  1  0.28225000  0.61384000  0.76583000  1.0
  O  O941  1  0.25367000  0.59230000  0.79936000  1.0
  O  O942  1  0.26665000  0.57149000  0.72273000  1.0
  O  O943  1  0.31481000  0.57149000  0.73769000  1.0
  O  O944  1  0.57234000  0.94431000  0.99437000  1.0
  O  O945  1  0.61838000  0.92981000  0.02795000  1.0
  O  O946  1  0.65289000  0.95487000  0.99773000  1.0
  O  O947  1  0.60735000  0.96604000  0.96224000  1.0
  O  O948  1  0.60734000  0.02140000  0.98158000  1.0
  O  O949  1  0.60555000  0.98776000  0.01739000  1.0
  O  O950  1  0.65755000  0.99555000  0.95605000  1.0
  O  O951  1  0.66355000  0.04290000  0.97263000  1.0
  O  O952  1  0.86144000  0.08556000  0.52143000  1.0
  O  O953  1  0.80243000  0.07876000  0.52352000  1.0
  O  O954  1  0.80615000  0.05550000  0.47670000  1.0
  O  O955  1  0.86535000  0.05620000  0.47857000  1.0
  O  O956  1  0.86472000  0.00089000  0.49554000  1.0
  O  O957  1  0.83670000  0.03051000  0.52309000  1.0
  O  O958  1  0.83870000  0.01937000  0.44347000  1.0
  O  O959  1  0.81952000  0.97340000  0.45198000  1.0
