# generated using pymatgen
data_ZnH40C48(NO)4
_symmetry_space_group_name_H-M   'P 1'
_cell_length_a   14.29925000
_cell_length_b   55.86250000
_cell_length_c   55.86350000
_cell_angle_alpha   92.42100000
_cell_angle_beta   89.76500000
_cell_angle_gamma   89.75800000
_symmetry_Int_Tables_number   1
_chemical_formula_structural   ZnH40C48(NO)4
_chemical_formula_sum   'Zn8 H320 C384 N32 O32'
_cell_volume   44582.67183417
_cell_formula_units_Z   8
loop_
 _symmetry_equiv_pos_site_id
 _symmetry_equiv_pos_as_xyz
  1  'x, y, z'
loop_
 _atom_site_type_symbol
 _atom_site_label
 _atom_site_symmetry_multiplicity
 _atom_site_fract_x
 _atom_site_fract_y
 _atom_site_fract_z
 _atom_site_occupancy
  C  C0  1  0.84338000  0.06983000  0.98479000  1.0
  C  C1  1  0.84738000  0.04991000  0.96893000  1.0
  C  C2  1  0.70646000  0.08387000  0.96614000  1.0
  C  C3  1  0.70834000  0.06427000  0.94968000  1.0
  C  C4  1  0.90012000  0.15449000  0.00451000  1.0
  C  C5  1  0.93196000  0.17447000  0.99269000  1.0
  C  C6  1  0.90398000  0.13095000  0.96827000  1.0
  C  C7  1  0.93448000  0.15052500  0.95570000  1.0
  C  C8  1  0.89170000  0.10766000  0.04687000  1.0
  C  C9  1  0.73784000  0.09222000  0.04550000  1.0
  C  C10  1  0.74422000  0.08535000  0.06913000  1.0
  C  C11  1  0.90194000  0.10061000  0.07049000  1.0
  C  C12  1  0.66292000  0.14568000  0.98315000  1.0
  C  C13  1  0.61548000  0.16759000  0.98341000  1.0
  C  C14  1  0.60470000  0.16666000  0.02647000  1.0
  C  C15  1  0.65204000  0.14476000  0.02540000  1.0
  C  C16  1  0.94376000  0.17307000  0.96765000  1.0
  C  C17  1  0.78048000  0.04711500  0.95068000  1.0
  C  C18  1  0.58970000  0.17893500  0.00538000  1.0
  C  C19  1  0.82686000  0.08964000  0.08217000  1.0
  C  C20  1  0.81042000  0.83888000  0.74358000  1.0
  C  C21  1  0.84479000  0.85230000  0.76331000  1.0
  C  C22  1  0.80976000  0.87326000  0.72022000  1.0
  C  C23  1  0.84402000  0.88731000  0.73945000  1.0
  C  C24  1  0.73698000  0.85953000  0.65851000  1.0
  C  C25  1  0.72410000  0.87780000  0.64264000  1.0
  C  C26  1  0.60134000  0.87170000  0.68042000  1.0
  C  C27  1  0.58646000  0.89051000  0.66507000  1.0
  C  C28  1  0.58874000  0.83062000  0.73976000  1.0
  C  C29  1  0.55948000  0.80314000  0.70727000  1.0
  C  C30  1  0.51066000  0.78817000  0.72223000  1.0
  C  C31  1  0.54150000  0.81602000  0.75545000  1.0
  C  C32  1  0.82312000  0.79208000  0.69554000  1.0
  C  C33  1  0.83972000  0.76870000  0.68648000  1.0
  C  C34  1  0.73928000  0.77658000  0.65309000  1.0
  C  C35  1  0.72546000  0.79977000  0.66263000  1.0
  C  C36  1  0.64900000  0.89383000  0.64603000  1.0
  C  C37  1  0.85820000  0.87710000  0.76170000  1.0
  C  C38  1  0.79396000  0.76028000  0.66552000  1.0
  C  C39  1  0.50700000  0.79378000  0.74693000  1.0
  C  C40  1  0.20302000  0.13964000  0.49168000  1.0
  C  C41  1  0.22554000  0.15864000  0.50758000  1.0
  C  C42  1  0.12116000  0.16585000  0.46679000  1.0
  C  C43  1  0.14330000  0.18546000  0.48205000  1.0
  C  C44  1  0.10198000  0.07632000  0.47884000  1.0
  C  C45  1  0.05024000  0.06061000  0.49241000  1.0
  C  C46  1  0.96458000  0.09769000  0.46935000  1.0
  C  C47  1  0.90994000  0.08221000  0.48247000  1.0
  C  C48  1  0.23656000  0.08325000  0.42553000  1.0
  C  C49  1  0.31826000  0.11834000  0.43822000  1.0
  C  C50  1  0.37705000  0.11616000  0.41825000  1.0
  C  C51  1  0.29360000  0.08044000  0.40529000  1.0
  C  C52  1  0.01857000  0.10833000  0.41007000  1.0
  C  C53  1  0.00922000  0.10794000  0.38517000  1.0
  C  C54  1  0.11662000  0.14108000  0.38391000  1.0
  C  C55  1  0.12390000  0.14087000  0.40881000  1.0
  C  C56  1  0.95262000  0.06338000  0.49437000  1.0
  C  C57  1  0.19662000  0.18195000  0.50267000  1.0
  C  C58  1  0.06170000  0.12382000  0.37169000  1.0
  C  C59  1  0.35982000  0.09813000  0.40053000  1.0
  C  C60  1  0.48577000  0.34911000  0.72699000  1.0
  C  C61  1  0.46776000  0.33315000  0.70771000  1.0
  C  C62  1  0.57438000  0.37387000  0.70209000  1.0
  C  C63  1  0.55676000  0.35856000  0.68219000  1.0
  C  C64  1  0.54602000  0.36334000  0.79215000  1.0
  C  C65  1  0.58614000  0.34963000  0.80980000  1.0
  C  C66  1  0.69574000  0.37258000  0.77695000  1.0
  C  C67  1  0.73888000  0.35957000  0.79466000  1.0
  C  C68  1  0.42802000  0.42100000  0.77602000  1.0
  C  C69  1  0.35904000  0.40211000  0.74180000  1.0
  C  C70  1  0.30386000  0.42233000  0.73832000  1.0
  C  C71  1  0.37666000  0.44191000  0.77269000  1.0
  C  C72  1  0.65240000  0.43131000  0.76289000  1.0
  C  C73  1  0.65042000  0.45630000  0.76521000  1.0
  C  C74  1  0.56504000  0.45724000  0.72808500  1.0
  C  C75  1  0.56778000  0.43225000  0.72656000  1.0
  C  C76  1  0.68414000  0.34754000  0.81133000  1.0
  C  C77  1  0.50172000  0.33809000  0.68486000  1.0
  C  C78  1  0.60156000  0.46941000  0.74838000  1.0
  C  C79  1  0.31924000  0.44345000  0.75241000  1.0
  C  C80  1  0.30170000  0.35317000  0.24979000  1.0
  C  C81  1  0.30040000  0.36996000  0.26898000  1.0
  C  C82  1  0.46632000  0.35643000  0.24633000  1.0
  C  C83  1  0.46834000  0.37323000  0.26561000  1.0
  C  C84  1  0.26846000  0.31981000  0.17091000  1.0
  C  C85  1  0.24390000  0.32902000  0.14892000  1.0
  C  C86  1  0.27046000  0.35886000  0.18912000  1.0
  C  C87  1  0.24660000  0.36881000  0.16749000  1.0
  C  C88  1  0.27298000  0.28221000  0.22061500  1.0
  C  C89  1  0.42766000  0.28447000  0.23555000  1.0
  C  C90  1  0.42056000  0.26162000  0.24446000  1.0
  C  C91  1  0.26276000  0.25921000  0.22927000  1.0
  C  C92  1  0.51314000  0.34608000  0.18474000  1.0
  C  C93  1  0.55838000  0.34723000  0.16262000  1.0
  C  C94  1  0.54946000  0.30412000  0.15808000  1.0
  C  C95  1  0.50492000  0.30377000  0.18033000  1.0
  C  C96  1  0.23832000  0.35395000  0.14667000  1.0
  C  C97  1  0.38434000  0.38043000  0.27698500  1.0
  C  C98  1  0.57222000  0.32616000  0.14837000  1.0
  C  C99  1  0.33758000  0.24855000  0.24122000  1.0
  C  C100  1  0.77534000  0.92336000  0.23428000  1.0
  C  C101  1  0.72978000  0.94459000  0.22908000  1.0
  C  C102  1  0.83026000  0.94070000  0.27100000  1.0
  C  C103  1  0.78620000  0.96240000  0.26640000  1.0
  C  C104  1  0.06746000  0.93823000  0.26094000  1.0
  C  C105  1  0.09560000  0.96170000  0.25744000  1.0
  C  C106  1  0.01810000  0.93374000  0.22061000  1.0
  C  C107  1  0.04638000  0.95708000  0.21625000  1.0
  C  C108  1  0.97492000  0.87184000  0.21076000  1.0
  C  C109  1  0.83822000  0.86394000  0.23315000  1.0
  C  C110  1  0.81464000  0.84509000  0.21725000  1.0
  C  C111  1  0.95394000  0.85303000  0.19433000  1.0
  C  C112  1  0.89904000  0.88404000  0.29763000  1.0
  C  C113  1  0.92130000  0.87177000  0.31818000  1.0
  C  C114  1  0.08296000  0.87078000  0.30544000  1.0
  C  C115  1  0.05734000  0.88269000  0.28501000  1.0
  C  C116  1  0.08074000  0.97189000  0.23518000  1.0
  C  C117  1  0.74002000  0.96489000  0.24450000  1.0
  C  C118  1  0.01442000  0.86479000  0.32226000  1.0
  C  C119  1  0.87238000  0.83947000  0.19740000  1.0
  C  C120  1  0.01210000  0.62761000  0.52013000  1.0
  C  C121  1  0.92436000  0.62917000  0.53115000  1.0
  C  C122  1  0.05870000  0.59727000  0.54599000  1.0
  C  C123  1  0.97216000  0.59835000  0.55762000  1.0
  C  C124  1  0.35392000  0.59934000  0.54699000  1.0
  C  C125  1  0.39292000  0.59490000  0.56930000  1.0
  C  C126  1  0.24384000  0.62618000  0.56524000  1.0
  C  C127  1  0.27926000  0.62191000  0.58788000  1.0
  C  C128  1  0.25700000  0.66271000  0.51127000  1.0
  C  C129  1  0.18510000  0.64252000  0.47810000  1.0
  C  C130  1  0.18463000  0.66344000  0.46536000  1.0
  C  C131  1  0.25890000  0.68404000  0.49903000  1.0
  C  C132  1  0.18468000  0.56704000  0.49697000  1.0
  C  C133  1  0.20796000  0.54762000  0.48148000  1.0
  C  C134  1  0.33552000  0.57072000  0.46606000  1.0
  C  C135  1  0.31010000  0.58964000  0.48192000  1.0
  C  C136  1  0.35248000  0.60531000  0.59031000  1.0
  C  C137  1  0.90442000  0.61494000  0.55067000  1.0
  C  C138  1  0.28409000  0.54935000  0.46567000  1.0
  C  C139  1  0.22090000  0.68473000  0.47586000  1.0
  C  C140  1  0.63190000  0.63474000  0.94844000  1.0
  C  C141  1  0.65840000  0.64491000  0.92709000  1.0
  C  C142  1  0.58285000  0.59942000  0.92727000  1.0
  C  C143  1  0.60714000  0.60908000  0.90543000  1.0
  C  C144  1  0.35462000  0.59017000  0.94248000  1.0
  C  C145  1  0.32658000  0.58952000  0.91856000  1.0
  C  C146  1  0.37672000  0.63209000  0.94209000  1.0
  C  C147  1  0.34630000  0.63236000  0.91840000  1.0
  C  C148  1  0.44198000  0.64808000  0.00216000  1.0
  C  C149  1  0.58946000  0.63020000  0.00897000  1.0
  C  C150  1  0.61106000  0.64801000  0.02623000  1.0
  C  C151  1  0.46050000  0.66625000  0.01949000  1.0
  C  C152  1  0.56734000  0.56046000  0.97788000  1.0
  C  C153  1  0.56551000  0.53788000  0.98782000  1.0
  C  C154  1  0.42786000  0.55017000  0.01046000  1.0
  C  C155  1  0.43233000  0.57241000  0.00013000  1.0
  C  C156  1  0.32956000  0.61056000  0.90559000  1.0
  C  C157  1  0.63988000  0.63273000  0.90513000  1.0
  C  C158  1  0.49498000  0.53251000  0.00436000  1.0
  C  C159  1  0.54704000  0.66666667  0.03141000  1.0
  C  C160  1  0.95090000  0.19520000  0.95365000  1.0
  C  C161  1  0.90234000  0.21622000  0.96129000  1.0
  C  C162  1  0.89640000  0.23575000  0.94653000  1.0
  C  C163  1  0.93632000  0.23441000  0.92358000  1.0
  C  C164  1  0.98882000  0.21416000  0.91630000  1.0
  C  C165  1  0.99668000  0.19479000  0.93125000  1.0
  C  C166  1  0.81054000  0.30316000  0.86398000  1.0
  C  C167  1  0.72580000  0.31495000  0.86900000  1.0
  C  C168  1  0.68554000  0.32965000  0.85216000  1.0
  C  C169  1  0.72872000  0.33254000  0.82973000  1.0
  C  C170  1  0.81456000  0.32069000  0.82498000  1.0
  C  C171  1  0.85572000  0.30649000  0.84210000  1.0
  C  C172  1  0.82872000  0.26456000  0.87471000  1.0
  C  C173  1  0.83528000  0.24951000  0.89681000  1.0
  C  C174  1  0.78792000  0.02685000  0.93250000  1.0
  C  C175  1  0.87624000  0.01867000  0.92426000  1.0
  C  C176  1  0.88370000  0.99969000  0.90724000  1.0
  C  C177  1  0.80322000  0.98883000  0.89774000  1.0
  C  C178  1  0.71510000  0.99669000  0.90590000  1.0
  C  C179  1  0.70736000  0.01554000  0.92312000  1.0
  C  C180  1  0.88644000  0.92592000  0.82287000  1.0
  C  C181  1  0.93690000  0.92977000  0.80184000  1.0
  C  C182  1  0.93144000  0.91337000  0.78228000  1.0
  C  C183  1  0.87562000  0.89274000  0.78348000  1.0
  C  C184  1  0.82896000  0.88843000  0.80513000  1.0
  C  C185  1  0.83494000  0.90480000  0.82469000  1.0
  C  C186  1  0.81160000  0.95862000  0.83909000  1.0
  C  C187  1  0.81646000  0.97909000  0.85800000  1.0
  C  C188  1  0.89628000  0.04706000  0.50911000  1.0
  C  C189  1  0.81804000  0.05572000  0.52230000  1.0
  C  C190  1  0.76660000  0.04048000  0.53653000  1.0
  C  C191  1  0.79351000  0.01649000  0.53823000  1.0
  C  C192  1  0.87008000  0.00761000  0.52490000  1.0
  C  C193  1  0.92094000  0.02271000  0.51041000  1.0
  C  C194  1  0.65312000  0.95553000  0.60290000  1.0
  C  C195  1  0.63346000  0.95812000  0.62746000  1.0
  C  C196  1  0.62771000  0.93795000  0.64137000  1.0
  C  C197  1  0.64144000  0.91488000  0.63084000  1.0
  C  C198  1  0.65630000  0.91235500  0.60595000  1.0
  C  C199  1  0.66128000  0.93254000  0.59206000  1.0
  C  C200  1  0.76164000  0.98110000  0.58941000  1.0
  C  C201  1  0.77808000  0.00411000  0.57634000  1.0
  C  C202  1  0.47538000  0.32254000  0.66386000  1.0
  C  C203  1  0.48178000  0.29748000  0.66475000  1.0
  C  C204  1  0.45014000  0.28281000  0.64561000  1.0
  C  C205  1  0.41112000  0.29295000  0.62542000  1.0
  C  C206  1  0.40486000  0.31792000  0.62439000  1.0
  C  C207  1  0.43779000  0.33265000  0.64336000  1.0
  C  C208  1  0.28434000  0.24044000  0.54952000  1.0
  C  C209  1  0.24274000  0.22021000  0.55897000  1.0
  C  C210  1  0.21372000  0.20121500  0.54374000  1.0
  C  C211  1  0.22384000  0.20246000  0.51878000  1.0
  C  C212  1  0.26276000  0.22315000  0.50936000  1.0
  C  C213  1  0.29299000  0.24198000  0.52466000  1.0
  C  C214  1  0.40598000  0.25439000  0.57192000  1.0
  C  C215  1  0.43926000  0.27459000  0.58898000  1.0
  C  C216  1  0.83284000  0.08334000  0.10788000  1.0
  C  C217  1  0.78194000  0.06387000  0.11644000  1.0
  C  C218  1  0.78142000  0.05913000  0.14080000  1.0
  C  C219  1  0.83300000  0.07339000  0.15706000  1.0
  C  C220  1  0.88750000  0.09208000  0.14866000  1.0
  C  C221  1  0.88638000  0.09726000  0.12437000  1.0
  C  C222  1  0.68112000  0.03534000  0.22029000  1.0
  C  C223  1  0.65638000  0.02949000  0.24363000  1.0
  C  C224  1  0.67422000  0.00649000  0.25158000  1.0
  C  C225  1  0.71584000  0.98898000  0.23612000  1.0
  C  C226  1  0.73986000  0.99503000  0.21267000  1.0
  C  C227  1  0.72224000  0.01798000  0.20482000  1.0
  C  C228  1  0.73718000  0.07346000  0.21669000  1.0
  C  C229  1  0.76866000  0.08428000  0.19332000  1.0
  C  C230  1  0.55986000  0.20453000  0.00676000  1.0
  C  C231  1  0.60280000  0.22115000  0.99198000  1.0
  C  C232  1  0.58362000  0.24562000  0.99511000  1.0
  C  C233  1  0.52274000  0.25398000  0.01332000  1.0
  C  C234  1  0.47686000  0.23754000  0.02747000  1.0
  C  C235  1  0.49524000  0.21301000  0.02425000  1.0
  C  C236  1  0.62355000  0.32637000  0.07246000  1.0
  C  C237  1  0.66490000  0.30880000  0.08616000  1.0
  C  C238  1  0.65160000  0.30919000  0.11099000  1.0
  C  C239  1  0.59689000  0.32727000  0.12253000  1.0
  C  C240  1  0.55850000  0.34536000  0.10868000  1.0
  C  C241  1  0.57268000  0.34504000  0.08392000  1.0
  C  C242  1  0.55950000  0.31481000  0.03628000  1.0
  C  C243  1  0.57452000  0.28776000  0.03289000  1.0
  C  C244  1  0.32960000  0.22414000  0.25064000  1.0
  C  C245  1  0.24705000  0.21685000  0.26198000  1.0
  C  C246  1  0.24260000  0.19453000  0.27236000  1.0
  C  C247  1  0.32078000  0.17928000  0.27180000  1.0
  C  C248  1  0.40148000  0.18591000  0.25953000  1.0
  C  C249  1  0.40610000  0.20818000  0.24912000  1.0
  C  C250  1  0.43880000  0.11837000  0.33043000  1.0
  C  C251  1  0.35112000  0.10822000  0.33430000  1.0
  C  C252  1  0.32806000  0.09991000  0.35676000  1.0
  C  C253  1  0.39288000  0.10137500  0.37567000  1.0
  C  C254  1  0.48358000  0.10970000  0.37108000  1.0
  C  C255  1  0.50674000  0.11784000  0.34846000  1.0
  C  C256  1  0.44478000  0.15415000  0.31206000  1.0
  C  C257  1  0.34325000  0.16186000  0.30768000  1.0
  C  C258  1  0.06892000  0.12046000  0.34521000  1.0
  C  C259  1  0.07264000  0.14026000  0.33048000  1.0
  C  C260  1  0.08704000  0.13690000  0.30577000  1.0
  C  C261  1  0.09806000  0.11377000  0.29542000  1.0
  C  C262  1  0.09554000  0.09402000  0.31002000  1.0
  C  C263  1  0.08000000  0.09730000  0.33464000  1.0
  C  C264  1  0.08654000  0.04889000  0.23345000  1.0
  C  C265  1  0.02320000  0.03576000  0.21912000  1.0
  C  C266  1  0.02320000  0.01074000  0.21909000  1.0
  C  C267  1  0.08846000  0.99834000  0.23289000  1.0
  C  C268  1  0.15496000  0.01174000  0.24624000  1.0
  C  C269  1  0.15352000  0.03678000  0.24662000  1.0
  C  C270  1  0.01492000  0.08157000  0.25106000  1.0
  C  C271  1  0.03120000  0.10788000  0.25840000  1.0
  C  C272  1  0.21480000  0.70757000  0.46306000  1.0
  C  C273  1  0.19626000  0.72945000  0.47570000  1.0
  C  C274  1  0.18397000  0.75056000  0.46345000  1.0
  C  C275  1  0.18806000  0.75008000  0.43839000  1.0
  C  C276  1  0.20928000  0.72860000  0.42572000  1.0
  C  C277  1  0.22292000  0.70755000  0.43791000  1.0
  C  C278  1  0.08496000  0.82325000  0.38309000  1.0
  C  C279  1  0.01504000  0.84085000  0.38511000  1.0
  C  C280  1  0.99260000  0.85451000  0.36550000  1.0
  C  C281  1  0.03958000  0.85071000  0.34344000  1.0
  C  C282  1  0.11050000  0.83310000  0.34171000  1.0
  C  C283  1  0.13370000  0.81976000  0.36144000  1.0
  C  C284  1  0.05734000  0.78824000  0.40087000  1.0
  C  C285  1  0.07528000  0.77382000  0.42298000  1.0
  C  C286  1  0.38352000  0.39894000  0.29687000  1.0
  C  C287  1  0.45080000  0.39867000  0.31517000  1.0
  C  C288  1  0.44810000  0.41589000  0.33410000  1.0
  C  C289  1  0.37818000  0.43355500  0.33503000  1.0
  C  C290  1  0.31250000  0.43427000  0.31655000  1.0
  C  C291  1  0.31466000  0.41702000  0.29772000  1.0
  C  C292  1  0.35430000  0.49050000  0.41659000  1.0
  C  C293  1  0.33156000  0.48627000  0.44045000  1.0
  C  C294  1  0.30856000  0.50536000  0.45640000  1.0
  C  C295  1  0.30930000  0.52905000  0.44880000  1.0
  C  C296  1  0.33406000  0.53320000  0.42492500  1.0
  C  C297  1  0.35658000  0.51406000  0.40898000  1.0
  C  C298  1  0.29486000  0.46312000  0.38976000  1.0
  C  C299  1  0.31832000  0.44239000  0.37208000  1.0
  C  C300  1  0.23941000  0.36462000  0.12267000  1.0
  C  C301  1  0.29374000  0.35403000  0.10390000  1.0
  C  C302  1  0.30730000  0.36583000  0.08261000  1.0
  C  C303  1  0.26874000  0.38863000  0.07989000  1.0
  C  C304  1  0.21064000  0.39873000  0.09788000  1.0
  C  C305  1  0.19580000  0.38682000  0.11907000  1.0
  C  C306  1  0.47890000  0.46374000  0.03611000  1.0
  C  C307  1  0.46190000  0.48476000  0.04998000  1.0
  C  C308  1  0.46752000  0.50706000  0.03970000  1.0
  C  C309  1  0.49099000  0.50874000  0.01533000  1.0
  C  C310  1  0.50938000  0.48753000  0.00157000  1.0
  C  C311  1  0.50368000  0.46521000  0.01193000  1.0
  C  C312  1  0.38634000  0.43195000  0.04437000  1.0
  C  C313  1  0.37394000  0.41336000  0.06333000  1.0
  C  C314  1  0.84596000  0.81989000  0.17991000  1.0
  C  C315  1  0.85710000  0.82260000  0.15513000  1.0
  C  C316  1  0.82646000  0.80474000  0.13872000  1.0
  C  C317  1  0.78344000  0.78408000  0.14681000  1.0
  C  C318  1  0.77492000  0.78092000  0.17143000  1.0
  C  C319  1  0.80566000  0.79867000  0.18786000  1.0
  C  C320  1  0.63782000  0.72604000  0.07704000  1.0
  C  C321  1  0.58036000  0.73001000  0.05736000  1.0
  C  C322  1  0.54827000  0.71070000  0.04297000  1.0
  C  C323  1  0.57332000  0.68704000  0.04805000  1.0
  C  C324  1  0.62936000  0.68322000  0.06822000  1.0
  C  C325  1  0.66210000  0.70257000  0.08241000  1.0
  C  C326  1  0.61785000  0.75072000  0.10999000  1.0
  C  C327  1  0.65904000  0.77189000  0.12441000  1.0
  C  C328  1  0.37820000  0.59694000  0.61447000  1.0
  C  C329  1  0.40262000  0.57277000  0.61745000  1.0
  C  C330  1  0.41492000  0.56409000  0.64032000  1.0
  C  C331  1  0.40116000  0.57918000  0.66067000  1.0
  C  C332  1  0.38126000  0.60346000  0.65795000  1.0
  C  C333  1  0.37006000  0.61231000  0.63507000  1.0
  C  C334  1  0.25850000  0.51342000  0.72624000  1.0
  C  C335  1  0.26188000  0.51022000  0.75094000  1.0
  C  C336  1  0.27682000  0.48736000  0.75964000  1.0
  C  C337  1  0.28992000  0.46733000  0.74371000  1.0
  C  C338  1  0.28456000  0.47088000  0.71888000  1.0
  C  C339  1  0.26746000  0.49357000  0.71032000  1.0
  C  C340  1  0.33102000  0.54643000  0.71208000  1.0
  C  C341  1  0.31998000  0.56158000  0.69017000  1.0
  C  C342  1  0.79318000  0.73428000  0.65817000  1.0
  C  C343  1  0.78438000  0.72677000  0.63387000  1.0
  C  C344  1  0.76812000  0.70271000  0.62737000  1.0
  C  C345  1  0.76120000  0.68568000  0.64495000  1.0
  C  C346  1  0.77666000  0.69266000  0.66899000  1.0
  C  C347  1  0.79128000  0.71676000  0.67560000  1.0
  C  C348  1  0.66126000  0.62657000  0.59525000  1.0
  C  C349  1  0.69308000  0.60321000  0.58987000  1.0
  C  C350  1  0.77072000  0.59927000  0.57490000  1.0
  C  C351  1  0.81706000  0.61869000  0.56489000  1.0
  C  C352  1  0.78198000  0.64201000  0.56963000  1.0
  C  C353  1  0.70412000  0.64584000  0.58446000  1.0
  C  C354  1  0.61682000  0.63285000  0.63435000  1.0
  C  C355  1  0.64288000  0.65881000  0.64145000  1.0
  C  C356  1  0.48332000  0.77487000  0.76373000  1.0
  C  C357  1  0.54538000  0.76999000  0.78240000  1.0
  C  C358  1  0.53312000  0.74979000  0.79592000  1.0
  C  C359  1  0.45864000  0.73422000  0.79108000  1.0
  C  C360  1  0.39350000  0.73963000  0.77339000  1.0
  C  C361  1  0.40638000  0.75969000  0.75957000  1.0
  C  C362  1  0.61810000  0.66973000  0.83943000  1.0
  C  C363  1  0.65854000  0.64680000  0.83925000  1.0
  C  C364  1  0.66822000  0.63483000  0.86064000  1.0
  C  C365  1  0.63926000  0.64588000  0.88255000  1.0
  C  C366  1  0.60126000  0.66919000  0.88255000  1.0
  C  C367  1  0.59106000  0.68098000  0.86120000  1.0
  C  C368  1  0.52034000  0.67513000  0.80801000  1.0
  C  C369  1  0.49052000  0.69420000  0.79079000  1.0
  C  C370  1  0.57286000  0.49451000  0.75412000  1.0
  C  C371  1  0.57890000  0.51208000  0.73693000  1.0
  C  C372  1  0.54244000  0.53506500  0.74188000  1.0
  C  C373  1  0.49788000  0.54059000  0.76384000  1.0
  C  C374  1  0.49120000  0.52308000  0.78093000  1.0
  C  C375  1  0.52950000  0.50033000  0.77627000  1.0
  C  C376  1  0.37658000  0.60107000  0.82965000  1.0
  C  C377  1  0.41280000  0.62102500  0.84230000  1.0
  C  C378  1  0.39342000  0.62483000  0.86665000  1.0
  C  C379  1  0.33484000  0.60905000  0.87881000  1.0
  C  C380  1  0.29284000  0.59004000  0.86541000  1.0
  C  C381  1  0.31422000  0.58600000  0.84108000  1.0
  C  C382  1  0.48850000  0.58399000  0.80557000  1.0
  C  C383  1  0.51934000  0.57873000  0.77967000  1.0
  H  H384  1  0.89666000  0.07235000  0.99833000  1.0
  H  H385  1  0.90300000  0.03695000  0.97086000  1.0
  H  H386  1  0.65192000  0.09718000  0.96506000  1.0
  H  H387  1  0.65548000  0.06302000  0.93589000  1.0
  H  H388  1  0.87940000  0.15646000  0.02313000  1.0
  H  H389  1  0.94014000  0.19125000  0.00283000  1.0
  H  H390  1  0.88654000  0.11453000  0.95843000  1.0
  H  H391  1  0.94134000  0.14840000  0.93644000  1.0
  H  H392  1  0.94884000  0.11636000  0.03804000  1.0
  H  H393  1  0.67384000  0.08915000  0.03562000  1.0
  H  H394  1  0.68357000  0.07740000  0.07719000  1.0
  H  H395  1  0.96798000  0.10378000  0.07941000  1.0
  H  H396  1  0.69202000  0.13843000  0.96648000  1.0
  H  H397  1  0.60472000  0.17626000  0.96667000  1.0
  H  H398  1  0.58790000  0.17483000  0.04388000  1.0
  H  H399  1  0.67236000  0.13697000  0.04193000  1.0
  H  H400  1  0.79226000  0.82032000  0.74558000  1.0
  H  H401  1  0.85596000  0.84357000  0.77999000  1.0
  H  H402  1  0.79256000  0.88173000  0.70379500  1.0
  H  H403  1  0.85238000  0.90634000  0.73731000  1.0
  H  H404  1  0.79768000  0.84800000  0.65666000  1.0
  H  H405  1  0.77510000  0.88005000  0.62854000  1.0
  H  H406  1  0.55534000  0.86950000  0.69556000  1.0
  H  H407  1  0.52786000  0.90256000  0.66830000  1.0
  H  H408  1  0.62160000  0.84683000  0.74670000  1.0
  H  H409  1  0.56974000  0.79758000  0.68874000  1.0
  H  H410  1  0.48454000  0.77125000  0.71490000  1.0
  H  H411  1  0.53822000  0.82120000  0.77433000  1.0
  H  H412  1  0.85296000  0.79785000  0.71251000  1.0
  H  H413  1  0.88426000  0.75702000  0.69644000  1.0
  H  H414  1  0.70110000  0.77105000  0.63713000  1.0
  H  H415  1  0.67644000  0.81140000  0.65407000  1.0
  H  H416  1  0.22676000  0.12172000  0.49512000  1.0
  H  H417  1  0.26713000  0.15523000  0.52323000  1.0
  H  H418  1  0.07924000  0.16849000  0.45108000  1.0
  H  H419  1  0.11862000  0.20314000  0.47788000  1.0
  H  H420  1  0.17716000  0.07444000  0.47769000  1.0
  H  H421  1  0.08684000  0.04680000  0.50170000  1.0
  H  H422  1  0.93212000  0.11248000  0.46062000  1.0
  H  H423  1  0.83504000  0.08500000  0.48319000  1.0
  H  H424  1  0.17618000  0.07185000  0.42717000  1.0
  H  H425  1  0.32194000  0.13437000  0.44967000  1.0
  H  H426  1  0.42670000  0.13030000  0.41523000  1.0
  H  H427  1  0.27873000  0.06616000  0.39216000  1.0
  H  H428  1  0.98624000  0.09438000  0.41998000  1.0
  H  H429  1  0.96600000  0.09434000  0.37644000  1.0
  H  H430  1  0.16002000  0.15327000  0.37425000  1.0
  H  H431  1  0.17463000  0.15232000  0.41779000  1.0
  H  H432  1  0.45676000  0.34584000  0.74444000  1.0
  H  H433  1  0.42464000  0.31762000  0.71047000  1.0
  H  H434  1  0.61690000  0.38958000  0.70005000  1.0
  H  H435  1  0.58530000  0.36273000  0.66488000  1.0
  H  H436  1  0.47080000  0.36462000  0.79077000  1.0
  H  H437  1  0.54034000  0.34030000  0.82169000  1.0
  H  H438  1  0.73790000  0.38115000  0.76371000  1.0
  H  H439  1  0.81444000  0.35900000  0.79515000  1.0
  H  H440  1  0.48216000  0.42120000  0.78947000  1.0
  H  H441  1  0.35812000  0.38757000  0.72845000  1.0
  H  H442  1  0.25686000  0.42209000  0.72319000  1.0
  H  H443  1  0.39090000  0.45738000  0.78434000  1.0
  H  H444  1  0.67834000  0.42138000  0.77764000  1.0
  H  H445  1  0.67904000  0.46512000  0.78117000  1.0
  H  H446  1  0.52498000  0.46668000  0.71502000  1.0
  H  H447  1  0.52628000  0.42300000  0.71300000  1.0
  H  H448  1  0.23712000  0.34514000  0.24353000  1.0
  H  H449  1  0.23434000  0.37463000  0.27754000  1.0
  H  H450  1  0.53070000  0.35097000  0.23745000  1.0
  H  H451  1  0.53456000  0.38086000  0.27122000  1.0
  H  H452  1  0.28498000  0.30097000  0.17176000  1.0
  H  H453  1  0.23690000  0.31683000  0.13346000  1.0
  H  H454  1  0.28890000  0.37068000  0.20413000  1.0
  H  H455  1  0.24466000  0.38812000  0.16671000  1.0
  H  H456  1  0.21558000  0.29046000  0.21146500  1.0
  H  H457  1  0.49154000  0.29456000  0.23800000  1.0
  H  H458  1  0.47922000  0.25441000  0.25404000  1.0
  H  H459  1  0.19754000  0.24979000  0.22637500  1.0
  H  H460  1  0.49198000  0.36249000  0.19423000  1.0
  H  H461  1  0.57586000  0.36459000  0.15601000  1.0
  H  H462  1  0.55726000  0.28744000  0.14768000  1.0
  H  H463  1  0.47714000  0.28707000  0.18624000  1.0
  H  H464  1  0.77768000  0.90897000  0.22077000  1.0
  H  H465  1  0.69374000  0.94571000  0.21215000  1.0
  H  H466  1  0.87594000  0.93971000  0.28631000  1.0
  H  H467  1  0.79646000  0.97766000  0.27869000  1.0
  H  H468  1  0.06796000  0.93175000  0.27887000  1.0
  H  H469  1  0.11994000  0.97236000  0.27277000  1.0
  H  H470  1  0.98024000  0.92365000  0.20690000  1.0
  H  H471  1  0.03484000  0.96395000  0.19868000  1.0
  H  H472  1  0.03788000  0.88215000  0.20855000  1.0
  H  H473  1  0.79332000  0.86843000  0.24831500  1.0
  H  H474  1  0.75062000  0.83536000  0.22023000  1.0
  H  H475  1  0.00128000  0.84904000  0.17952000  1.0
  H  H476  1  0.82720000  0.88885000  0.29414000  1.0
  H  H477  1  0.86556000  0.86719000  0.33028000  1.0
  H  H478  1  0.15578000  0.86620000  0.30786000  1.0
  H  H479  1  0.10956000  0.88653000  0.27168000  1.0
  H  H480  1  0.02848000  0.63949000  0.50599000  1.0
  H  H481  1  0.87376000  0.64191000  0.52490000  1.0
  H  H482  1  0.11254000  0.58539000  0.55215000  1.0
  H  H483  1  0.96060000  0.58722000  0.57274000  1.0
  H  H484  1  0.38046000  0.58990000  0.53108000  1.0
  H  H485  1  0.45116000  0.58254000  0.57010000  1.0
  H  H486  1  0.18358000  0.63774000  0.56359000  1.0
  H  H487  1  0.24470000  0.63028000  0.60335000  1.0
  H  H488  1  0.28392000  0.66233000  0.52929000  1.0
  H  H489  1  0.15460000  0.62635000  0.47028000  1.0
  H  H490  1  0.15292000  0.66304000  0.44780000  1.0
  H  H491  1  0.28906000  0.69985000  0.50774000  1.0
  H  H492  1  0.12562000  0.56574000  0.50893000  1.0
  H  H493  1  0.16582000  0.53157000  0.48159000  1.0
  H  H494  1  0.39542000  0.57272000  0.45441000  1.0
  H  H495  1  0.34984000  0.60608000  0.48233000  1.0
  H  H496  1  0.63460000  0.64563000  0.96482000  1.0
  H  H497  1  0.68516000  0.66303000  0.92768000  1.0
  H  H498  1  0.54662000  0.58248000  0.92722000  1.0
  H  H499  1  0.59092000  0.59908000  0.88896000  1.0
  H  H500  1  0.36572000  0.57342000  0.95104000  1.0
  H  H501  1  0.31444000  0.57219000  0.90981000  1.0
  H  H502  1  0.40592000  0.64825000  0.95025000  1.0
  H  H503  1  0.34614000  0.64922000  0.90957000  1.0
  H  H504  1  0.37622000  0.64797000  0.99271000  1.0
  H  H505  1  0.64002000  0.61629000  0.00438000  1.0
  H  H506  1  0.67904000  0.64763000  0.03465000  1.0
  H  H507  1  0.40816000  0.67995000  0.02326000  1.0
  H  H508  1  0.62170000  0.56469000  0.96527000  1.0
  H  H509  1  0.61934000  0.52491000  0.98285000  1.0
  H  H510  1  0.37152000  0.54676000  0.02284000  1.0
  H  H511  1  0.38042000  0.58600000  0.00468000  1.0
  H  H512  1  0.87968000  0.25743000  0.86106000  1.0
  H  H513  1  0.75639000  0.26215000  0.86749000  1.0
  H  H514  1  0.82320000  0.23049000  0.89062000  1.0
  H  H515  1  0.77836000  0.25526000  0.90947000  1.0
  H  H516  1  0.86468000  0.21728000  0.97814000  1.0
  H  H517  1  0.85662000  0.25145000  0.95243000  1.0
  H  H518  1  0.02162000  0.21320000  0.89879000  1.0
  H  H519  1  0.03650000  0.17926000  0.92492000  1.0
  H  H520  1  0.69126000  0.31280000  0.88604000  1.0
  H  H521  1  0.62096000  0.33886000  0.85690000  1.0
  H  H522  1  0.84962000  0.32194000  0.80789000  1.0
  H  H523  1  0.92166000  0.29757000  0.83812000  1.0
  H  H524  1  0.74402000  0.94909000  0.84137000  1.0
  H  H525  1  0.81288000  0.96679000  0.82120000  1.0
  H  H526  1  0.75704000  0.99151000  0.85465000  1.0
  H  H527  1  0.88378000  0.98872000  0.85569000  1.0
  H  H528  1  0.93984000  0.02711000  0.93071000  1.0
  H  H529  1  0.95210000  0.99359000  0.90121000  1.0
  H  H530  1  0.65256000  0.98812000  0.89893000  1.0
  H  H531  1  0.63838000  0.02101000  0.92927000  1.0
  H  H532  1  0.97846000  0.94581000  0.80046500  1.0
  H  H533  1  0.96954000  0.91707000  0.76608000  1.0
  H  H534  1  0.78444000  0.87295000  0.80669000  1.0
  H  H535  1  0.79682000  0.90151000  0.84099000  1.0
  H  H536  1  0.80270000  0.96650000  0.58000000  1.0
  H  H537  1  0.78868000  0.98401000  0.60801000  1.0
  H  H538  1  0.85490000  0.00773000  0.57727000  1.0
  H  H539  1  0.74032000  0.01910000  0.58597000  1.0
  H  H540  1  0.79744000  0.07436000  0.52206000  1.0
  H  H541  1  0.70698000  0.04743000  0.54664000  1.0
  H  H542  1  0.89036000  0.98899000  0.52584000  1.0
  H  H543  1  0.97920000  0.01522000  0.50014000  1.0
  H  H544  1  0.62580000  0.97583000  0.63590000  1.0
  H  H545  1  0.61677000  0.94047000  0.66050000  1.0
  H  H546  1  0.66598000  0.89479000  0.59732000  1.0
  H  H547  1  0.67481000  0.93037000  0.57301000  1.0
  H  H548  1  0.45462000  0.25323000  0.55626000  1.0
  H  H549  1  0.40956000  0.23739000  0.58166000  1.0
  H  H550  1  0.44674000  0.29115000  0.57872000  1.0
  H  H551  1  0.50906000  0.26926000  0.59595000  1.0
  H  H552  1  0.51040000  0.28926000  0.68035000  1.0
  H  H553  1  0.45410000  0.26353000  0.64666000  1.0
  H  H554  1  0.37344000  0.32589000  0.60902000  1.0
  H  H555  1  0.43074000  0.35189000  0.64238000  1.0
  H  H556  1  0.23424000  0.21907000  0.57815000  1.0
  H  H557  1  0.18296000  0.18560000  0.55144000  1.0
  H  H558  1  0.27170000  0.22453000  0.49021000  1.0
  H  H559  1  0.32376000  0.25771000  0.51721000  1.0
  H  H560  1  0.79906000  0.06534000  0.22552000  1.0
  H  H561  1  0.71198000  0.08819000  0.22909000  1.0
  H  H562  1  0.80510000  0.10145000  0.19779000  1.0
  H  H563  1  0.70480000  0.08829000  0.18269000  1.0
  H  H564  1  0.74222000  0.05220000  0.10439000  1.0
  H  H565  1  0.74084000  0.04430000  0.14705000  1.0
  H  H566  1  0.92866000  0.10301000  0.16107000  1.0
  H  H567  1  0.92568000  0.11255000  0.11873000  1.0
  H  H568  1  0.62358000  0.04279000  0.25559000  1.0
  H  H569  1  0.65510000  0.00236000  0.26972000  1.0
  H  H570  1  0.77410000  0.98216000  0.20049000  1.0
  H  H571  1  0.74102000  0.02232000  0.18674000  1.0
  H  H572  1  0.55388000  0.32242000  0.01829000  1.0
  H  H573  1  0.49102000  0.31875000  0.04534000  1.0
  H  H574  1  0.56812000  0.27962000  0.05068000  1.0
  H  H575  1  0.64646000  0.28466000  0.02556000  1.0
  H  H576  1  0.65410000  0.21544000  0.97861000  1.0
  H  H577  1  0.61834000  0.25819000  0.98386000  1.0
  H  H578  1  0.42814000  0.24384000  0.04124000  1.0
  H  H579  1  0.45992000  0.20072000  0.03569000  1.0
  H  H580  1  0.70668000  0.29470000  0.07753000  1.0
  H  H581  1  0.68336000  0.29521000  0.12110000  1.0
  H  H582  1  0.51464000  0.35934000  0.11677000  1.0
  H  H583  1  0.54194000  0.35895000  0.07352000  1.0
  H  H584  1  0.49094000  0.16287000  0.29906000  1.0
  H  H585  1  0.46810000  0.16151000  0.32994000  1.0
  H  H586  1  0.33384000  0.18080000  0.31461000  1.0
  H  H587  1  0.29504000  0.15148000  0.31878000  1.0
  H  H588  1  0.18698000  0.22868000  0.26353000  1.0
  H  H589  1  0.17944000  0.18939000  0.28152000  1.0
  H  H590  1  0.46124000  0.17398000  0.25835000  1.0
  H  H591  1  0.46984000  0.21295500  0.23998000  1.0
  H  H592  1  0.29926000  0.10781000  0.32025000  1.0
  H  H593  1  0.25746000  0.09378000  0.35971000  1.0
  H  H594  1  0.53514000  0.11084000  0.38521000  1.0
  H  H595  1  0.57570000  0.12502000  0.34538000  1.0
  H  H596  1  0.01404000  0.07108000  0.26760000  1.0
  H  H597  1  0.94502000  0.08013000  0.24250000  1.0
  H  H598  1  0.96828000  0.11519000  0.26822000  1.0
  H  H599  1  0.03654000  0.11829000  0.24195000  1.0
  H  H600  1  0.06492000  0.15831000  0.33807000  1.0
  H  H601  1  0.09038000  0.15228000  0.29467000  1.0
  H  H602  1  0.10712000  0.07613000  0.30239000  1.0
  H  H603  1  0.08046000  0.08172000  0.34553000  1.0
  H  H604  1  0.97174000  0.04498000  0.20871000  1.0
  H  H605  1  0.96956000  0.00126000  0.20896000  1.0
  H  H606  1  0.20732000  0.00292000  0.25673000  1.0
  H  H607  1  0.20382000  0.04682000  0.25738000  1.0
  H  H608  1  0.08028000  0.77715000  0.38484000  1.0
  H  H609  1  0.98050000  0.79158000  0.39986000  1.0
  H  H610  1  0.03661000  0.75656000  0.42026000  1.0
  H  H611  1  0.04566000  0.78374000  0.43897000  1.0
  H  H612  1  0.18844000  0.73022000  0.49499000  1.0
  H  H613  1  0.16862000  0.76717000  0.47340000  1.0
  H  H614  1  0.21434000  0.72820000  0.40637000  1.0
  H  H615  1  0.23936000  0.69124000  0.42757000  1.0
  H  H616  1  0.97817000  0.84395000  0.40192000  1.0
  H  H617  1  0.93906000  0.86818000  0.36775000  1.0
  H  H618  1  0.14730000  0.82928000  0.32501000  1.0
  H  H619  1  0.18846000  0.80634000  0.35978000  1.0
  H  H620  1  0.25992000  0.47745000  0.37968000  1.0
  H  H621  1  0.24524000  0.45630000  0.40330000  1.0
  H  H622  1  0.25042000  0.43520000  0.36514000  1.0
  H  H623  1  0.35532000  0.42816000  0.38177000  1.0
  H  H624  1  0.50446000  0.38494000  0.31506000  1.0
  H  H625  1  0.49988000  0.41541000  0.34815000  1.0
  H  H626  1  0.25928000  0.44811000  0.31692000  1.0
  H  H627  1  0.26294000  0.41798000  0.28369000  1.0
  H  H628  1  0.33118000  0.46814000  0.44657000  1.0
  H  H629  1  0.29130000  0.50161000  0.47475000  1.0
  H  H630  1  0.33470000  0.55120000  0.41847000  1.0
  H  H631  1  0.37514000  0.51750000  0.39065000  1.0
  H  H632  1  0.37892000  0.42306000  0.02628000  1.0
  H  H633  1  0.32951000  0.44558000  0.04720000  1.0
  H  H634  1  0.37684000  0.42309000  0.08120000  1.0
  H  H635  1  0.43308000  0.40034000  0.06174000  1.0
  H  H636  1  0.32986000  0.33720000  0.10603000  1.0
  H  H637  1  0.35130000  0.35774000  0.06866000  1.0
  H  H638  1  0.17898000  0.41613000  0.09569000  1.0
  H  H639  1  0.15224000  0.39532000  0.13289000  1.0
  H  H640  1  0.44460000  0.48378000  0.06880000  1.0
  H  H641  1  0.45467000  0.52302000  0.05093000  1.0
  H  H642  1  0.52698000  0.48816000  0.98274000  1.0
  H  H643  1  0.51834000  0.44905000  0.00118000  1.0
  H  H644  1  0.61351000  0.73527000  0.12194000  1.0
  H  H645  1  0.54616000  0.75584000  0.10425000  1.0
  H  H646  1  0.61378000  0.77517000  0.14055000  1.0
  H  H647  1  0.65706000  0.78791000  0.11320000  1.0
  H  H648  1  0.88720000  0.83875000  0.14839000  1.0
  H  H649  1  0.83456000  0.80715000  0.11970000  1.0
  H  H650  1  0.74352000  0.76477000  0.17781000  1.0
  H  H651  1  0.79778000  0.79578000  0.20680000  1.0
  H  H652  1  0.56250000  0.74812000  0.05288000  1.0
  H  H653  1  0.50684000  0.71440000  0.02737000  1.0
  H  H654  1  0.64906000  0.66529000  0.07290000  1.0
  H  H655  1  0.70710000  0.69936000  0.09749000  1.0
  H  H656  1  0.38792000  0.53311000  0.70780000  1.0
  H  H657  1  0.35324000  0.55815000  0.72755000  1.0
  H  H658  1  0.27208000  0.57686500  0.69481000  1.0
  H  H659  1  0.28780000  0.54988000  0.67577000  1.0
  H  H660  1  0.40832000  0.56020000  0.60225000  1.0
  H  H661  1  0.43176000  0.54537000  0.64227000  1.0
  H  H662  1  0.37302000  0.61541000  0.67358000  1.0
  H  H663  1  0.35404000  0.63113000  0.63358000  1.0
  H  H664  1  0.25356000  0.52546000  0.76339000  1.0
  H  H665  1  0.27906000  0.48553000  0.77882000  1.0
  H  H666  1  0.29700000  0.45638000  0.70581000  1.0
  H  H667  1  0.26434000  0.49589000  0.69120000  1.0
  H  H668  1  0.67442000  0.62016000  0.63857000  1.0
  H  H669  1  0.55762000  0.62767000  0.64590000  1.0
  H  H670  1  0.62252000  0.66209000  0.66061000  1.0
  H  H671  1  0.60186000  0.67119000  0.63032000  1.0
  H  H672  1  0.78794000  0.73955000  0.61987000  1.0
  H  H673  1  0.75916000  0.69740000  0.60869000  1.0
  H  H674  1  0.77318000  0.67953000  0.68267000  1.0
  H  H675  1  0.79668000  0.72170000  0.69447000  1.0
  H  H676  1  0.65846000  0.58815000  0.59760000  1.0
  H  H677  1  0.79464000  0.58107000  0.57125000  1.0
  H  H678  1  0.81610000  0.65742000  0.56244500  1.0
  H  H679  1  0.67802000  0.66386000  0.58792000  1.0
  H  H680  1  0.46290000  0.67342000  0.82146000  1.0
  H  H681  1  0.52858000  0.65774000  0.79773000  1.0
  H  H682  1  0.43748000  0.68631000  0.77831000  1.0
  H  H683  1  0.55334000  0.69911000  0.78008000  1.0
  H  H684  1  0.60610000  0.78113000  0.78580000  1.0
  H  H685  1  0.58294000  0.74587000  0.80977000  1.0
  H  H686  1  0.33484000  0.72786000  0.76982000  1.0
  H  H687  1  0.35754000  0.76305000  0.74532000  1.0
  H  H688  1  0.68068000  0.63809000  0.82249000  1.0
  H  H689  1  0.69770000  0.61694000  0.86003000  1.0
  H  H690  1  0.57608000  0.67805000  0.89895000  1.0
  H  H691  1  0.56050000  0.69875000  0.86149000  1.0
  H  H692  1  0.48308000  0.56675000  0.81477000  1.0
  H  H693  1  0.54414000  0.59515000  0.81436000  1.0
  H  H694  1  0.59386000  0.57253000  0.77948000  1.0
  H  H695  1  0.51884000  0.59573000  0.77006500  1.0
  H  H696  1  0.61082000  0.50796000  0.71963000  1.0
  H  H697  1  0.54682000  0.54842000  0.72845000  1.0
  H  H698  1  0.45504000  0.52694000  0.79771000  1.0
  H  H699  1  0.52180000  0.48698000  0.78962000  1.0
  H  H700  1  0.46028000  0.63283000  0.83354000  1.0
  H  H701  1  0.42892000  0.63942000  0.87604000  1.0
  H  H702  1  0.24560000  0.57783000  0.87380000  1.0
  H  H703  1  0.28396000  0.57085000  0.83125000  1.0
  N  N704  1  0.77460000  0.08651000  0.98296000  1.0
  N  N705  1  0.88286000  0.13359000  0.99199000  1.0
  N  N706  1  0.80980000  0.10376000  0.03509000  1.0
  N  N707  1  0.68268000  0.13504000  0.00402000  1.0
  N  N708  1  0.79002000  0.84970000  0.72283000  1.0
  N  N709  1  0.67624000  0.85684000  0.67699000  1.0
  N  N710  1  0.60310000  0.82302000  0.71656000  1.0
  N  N711  1  0.76392000  0.80679000  0.68401000  1.0
  N  N712  1  0.15286000  0.14356000  0.47159000  1.0
  N  N713  1  0.05860000  0.09432000  0.46754000  1.0
  N  N714  1  0.24556000  0.10297000  0.44044000  1.0
  N  N715  1  0.07710000  0.12427000  0.42133000  1.0
  N  N716  1  0.53634000  0.36929000  0.72379000  1.0
  N  N717  1  0.60104000  0.37448000  0.77619000  1.0
  N  N718  1  0.42500000  0.40265000  0.75926000  1.0
  N  N719  1  0.60698000  0.41976000  0.74442000  1.0
  N  N720  1  0.38350000  0.34713000  0.23858000  1.0
  N  N721  1  0.28514000  0.33485000  0.19019000  1.0
  N  N722  1  0.35506000  0.29415000  0.22362500  1.0
  N  N723  1  0.48420000  0.32464000  0.19267000  1.0
  N  N724  1  0.82822000  0.92220000  0.25438000  1.0
  N  N725  1  0.02600000  0.92509000  0.24292000  1.0
  N  N726  1  0.91610000  0.87717000  0.22944000  1.0
  N  N727  1  0.96686000  0.88918000  0.28156000  1.0
  N  N728  1  0.07796000  0.61221000  0.52801000  1.0
  N  N729  1  0.27860000  0.61413000  0.54550000  1.0
  N  N730  1  0.21932000  0.64260000  0.50076000  1.0
  N  N731  1  0.23562000  0.58754000  0.49689000  1.0
  N  N732  1  0.58994000  0.61291000  0.94804000  1.0
  N  N733  1  0.38669000  0.61093000  0.95299000  1.0
  N  N734  1  0.50750000  0.63095000  0.99680000  1.0
  N  N735  1  0.50092000  0.57708000  0.98411000  1.0
  O  O736  1  0.84998000  0.28878000  0.88081000  1.0
  O  O737  1  0.92324000  0.25274000  0.90803000  1.0
  O  O738  1  0.88800000  0.94277000  0.84171000  1.0
  O  O739  1  0.81067000  0.96985000  0.88113000  1.0
  O  O740  1  0.66520000  0.97553000  0.58951000  1.0
  O  O741  1  0.74412000  0.00146000  0.55261000  1.0
  O  O742  1  0.31348000  0.25916000  0.56458000  1.0
  O  O743  1  0.37278000  0.27833000  0.60754000  1.0
  O  O744  1  0.66110000  0.05775000  0.21213000  1.0
  O  O745  1  0.83198000  0.06847000  0.18109000  1.0
  O  O746  1  0.63676000  0.32598000  0.04793000  1.0
  O  O747  1  0.50638000  0.27825000  0.01690000  1.0
  O  O748  1  0.45770000  0.12898000  0.30901000  1.0
  O  O749  1  0.31819000  0.15784000  0.28329000  1.0
  O  O750  1  0.08434000  0.07365000  0.23437000  1.0
  O  O751  1  0.11628000  0.11057000  0.27117000  1.0
  O  O752  1  0.10762000  0.80997000  0.40256000  1.0
  O  O753  1  0.17276000  0.77068000  0.42611000  1.0
  O  O754  1  0.37758000  0.47163000  0.40087000  1.0
  O  O755  1  0.37572000  0.45073000  0.35355000  1.0
  O  O756  1  0.47690000  0.44186000  0.04669000  1.0
  O  O757  1  0.28816000  0.40120000  0.05970000  1.0
  O  O758  1  0.67578000  0.74519000  0.08998000  1.0
  O  O759  1  0.75228000  0.76651000  0.13069000  1.0
  O  O760  1  0.24380000  0.53590000  0.71748000  1.0
  O  O761  1  0.40866000  0.57018000  0.68325000  1.0
  O  O762  1  0.58556000  0.63051000  0.61033000  1.0
  O  O763  1  0.74034000  0.66212000  0.63860000  1.0
  O  O764  1  0.60714000  0.68162000  0.81845000  1.0
  O  O765  1  0.44950000  0.71381000  0.80396000  1.0
  O  O766  1  0.40194000  0.59640000  0.80600000  1.0
  O  O767  1  0.45596000  0.56271000  0.76803000  1.0
  Zn  Zn768  1  0.78726000  0.11403000  0.00373000  1.0
  Zn  Zn769  1  0.70926000  0.83432000  0.69987000  1.0
  Zn  Zn770  1  0.13122000  0.11646000  0.45095000  1.0
  Zn  Zn771  1  0.54500000  0.39074000  0.75087000  1.0
  Zn  Zn772  1  0.37616000  0.32499000  0.21210000  1.0
  Zn  Zn773  1  0.93570000  0.90265000  0.25218000  1.0
  Zn  Zn774  1  0.20406000  0.61415000  0.51754000  1.0
  Zn  Zn775  1  0.49622000  0.60779000  0.97133000  1.0
