# generated using pymatgen
data_Be2H51C47(NO4)4
_symmetry_space_group_name_H-M   'P 1'
_cell_length_a   30.06860000
_cell_length_b   39.95150000
_cell_length_c   39.96350000
_cell_angle_alpha   89.98900000
_cell_angle_beta   90.21300000
_cell_angle_gamma   89.95000000
_symmetry_Int_Tables_number   1
_chemical_formula_structural   Be2H51C47(NO4)4
_chemical_formula_sum   'Be16 H408 C376 N32 O128'
_cell_volume   48007.22905772
_cell_formula_units_Z   8
loop_
 _symmetry_equiv_pos_site_id
 _symmetry_equiv_pos_as_xyz
  1  'x, y, z'
loop_
 _atom_site_type_symbol
 _atom_site_label
 _atom_site_symmetry_multiplicity
 _atom_site_fract_x
 _atom_site_fract_y
 _atom_site_fract_z
 _atom_site_occupancy
  Be  Be0  1  0.97466000  0.37819000  0.01142000  1.0
  Be  Be1  1  0.22865000  0.27925000  0.61402000  1.0
  Be  Be2  1  0.54870000  0.63207000  0.53251000  1.0
  Be  Be3  1  0.72143000  0.73514000  0.88496000  1.0
  Be  Be4  1  0.97892000  0.64129000  0.02132000  1.0
  Be  Be5  1  0.24764000  0.26494000  0.87973000  1.0
  Be  Be6  1  0.51363000  0.37256000  0.51231000  1.0
  Be  Be7  1  0.78829000  0.78230000  0.63609000  1.0
  Be  Be8  1  0.75415000  0.79770000  0.41842000  1.0
  Be  Be9  1  0.25875000  0.26070000  0.12268000  1.0
  Be  Be10  1  0.74400000  0.75225000  0.16976000  1.0
  Be  Be11  1  0.25593000  0.27215000  0.38138000  1.0
  Be  Be12  1  0.49342000  0.88271000  0.56725000  1.0
  Be  Be13  1  0.02015000  0.11125000  0.99749000  1.0
  Be  Be14  1  0.45957000  0.13792000  0.54402000  1.0
  Be  Be15  1  0.97964000  0.85391000  0.00891000  1.0
  H  H16  1  0.41703000  0.70141000  0.07995000  1.0
  H  H17  1  0.45002000  0.72442000  0.10900000  1.0
  H  H18  1  0.39242000  0.73427000  0.10449000  1.0
  H  H19  1  0.37095000  0.82759000  0.99502000  1.0
  H  H20  1  0.38170000  0.79330000  0.96640000  1.0
  H  H21  1  0.34060000  0.78906000  0.99761000  1.0
  H  H22  1  0.55324000  0.79427000  0.05314000  1.0
  H  H23  1  0.55576000  0.77722000  0.01141000  1.0
  H  H24  1  0.53837000  0.82016000  0.01964000  1.0
  H  H25  1  0.23568000  0.71425000  0.11945000  1.0
  H  H26  1  0.22912000  0.75658000  0.13010000  1.0
  H  H27  1  0.19994000  0.74067000  0.09390000  1.0
  H  H28  1  0.32423000  0.69449000  0.00831000  1.0
  H  H29  1  0.37507000  0.71666000  0.00732000  1.0
  H  H30  1  0.36701000  0.68476000  0.03862000  1.0
  H  H31  1  0.33710000  0.83479000  0.09785000  1.0
  H  H32  1  0.38568000  0.82144000  0.07696000  1.0
  H  H33  1  0.33935000  0.83767000  0.05286000  1.0
  H  H34  1  0.61569000  0.25655000  0.93964000  1.0
  H  H35  1  0.59430000  0.22054000  0.91784000  1.0
  H  H36  1  0.56152000  0.25796000  0.92173000  1.0
  H  H37  1  0.58981000  0.18792000  0.07242000  1.0
  H  H38  1  0.63551000  0.20896000  0.05416000  1.0
  H  H39  1  0.59260000  0.23300000  0.07448000  1.0
  H  H40  1  0.45226000  0.17248000  0.97257000  1.0
  H  H41  1  0.45436000  0.16675000  0.01595000  1.0
  H  H42  1  0.43040000  0.20500000  0.99950000  1.0
  H  H43  1  0.80451000  0.23787000  0.97905000  1.0
  H  H44  1  0.78211000  0.23144000  0.93747000  1.0
  H  H45  1  0.77835000  0.27101000  0.95420000  1.0
  H  H46  1  0.66588000  0.14577000  0.97634000  1.0
  H  H47  1  0.61316000  0.16275000  0.98477000  1.0
  H  H48  1  0.63458000  0.16570000  0.94282000  1.0
  H  H49  1  0.65582000  0.30707000  0.01899000  1.0
  H  H50  1  0.60525000  0.28430000  0.01660000  1.0
  H  H51  1  0.64328000  0.27679000  0.05102000  1.0
  H  H52  1  0.89574000  0.27036000  0.48414000  1.0
  H  H53  1  0.86994000  0.27650000  0.44408000  1.0
  H  H54  1  0.84589000  0.29435000  0.48109000  1.0
  H  H55  1  0.81296000  0.14019000  0.52767000  1.0
  H  H56  1  0.85711000  0.13677000  0.49726000  1.0
  H  H57  1  0.86380000  0.16105000  0.53513000  1.0
  H  H58  1  0.69334000  0.21665000  0.45960000  1.0
  H  H59  1  0.72217000  0.22477000  0.42069000  1.0
  H  H60  1  0.71518000  0.18317000  0.43410000  1.0
  H  H61  1  0.03668000  0.14790000  0.51130000  1.0
  H  H62  1  0.05891000  0.18937000  0.51838000  1.0
  H  H63  1  0.03080000  0.16599000  0.55089000  1.0
  H  H64  1  0.93290000  0.17906000  0.41916000  1.0
  H  H65  1  0.88370000  0.16490000  0.43999000  1.0
  H  H66  1  0.89009000  0.20827000  0.42796000  1.0
  H  H67  1  0.88331000  0.21901000  0.57571000  1.0
  H  H68  1  0.90839000  0.25835000  0.56305000  1.0
  H  H69  1  0.85820000  0.24483000  0.54425000  1.0
  H  H70  1  0.14244000  0.73190000  0.42217000  1.0
  H  H71  1  0.11205000  0.69485000  0.41153000  1.0
  H  H72  1  0.08521000  0.73493000  0.41150000  1.0
  H  H73  1  0.12488000  0.72923000  0.57283000  1.0
  H  H74  1  0.16138000  0.69759000  0.55593000  1.0
  H  H75  1  0.16689000  0.74104000  0.54433000  1.0
  H  H76  1  0.98922000  0.65654000  0.48473000  1.0
  H  H77  1  0.00138000  0.65468000  0.52763000  1.0
  H  H78  1  0.97019000  0.69009000  0.51135000  1.0
  H  H79  1  0.32863000  0.74874000  0.45508000  1.0
  H  H80  1  0.31053000  0.72635000  0.41819000  1.0
  H  H81  1  0.30033000  0.76900000  0.42049000  1.0
  H  H82  1  0.21492000  0.64558000  0.48170000  1.0
  H  H83  1  0.16638000  0.66072000  0.50136000  1.0
  H  H84  1  0.16713000  0.65588000  0.45639000  1.0
  H  H85  1  0.17186000  0.81205000  0.48836000  1.0
  H  H86  1  0.13377000  0.79165000  0.46005000  1.0
  H  H87  1  0.13305000  0.78293000  0.50437000  1.0
  H  H88  1  0.10310000  0.80613000  0.99423000  1.0
  H  H89  1  0.10683000  0.81007000  0.08550000  1.0
  H  H90  1  0.17526000  0.80694000  0.11878000  1.0
  H  H91  1  0.18449000  0.82292000  0.99594000  1.0
  H  H92  1  0.25314000  0.81966000  0.02926000  1.0
  H  H93  1  0.25403000  0.80773000  0.12146000  1.0
  H  H94  1  0.37977000  0.32075000  0.07904000  1.0
  H  H95  1  0.45708000  0.30631000  0.08165000  1.0
  H  H96  1  0.51587000  0.26534000  0.07065000  1.0
  H  H97  1  0.35878000  0.22775000  0.07430000  1.0
  H  H98  1  0.41762000  0.18702000  0.06576000  1.0
  H  H99  1  0.49524000  0.17468000  0.06122000  1.0
  H  H100  1  0.58719000  0.16952000  0.57502000  1.0
  H  H101  1  0.65820000  0.19854000  0.56318000  1.0
  H  H102  1  0.73124000  0.19473000  0.53664000  1.0
  H  H103  1  0.60983000  0.12009000  0.49838000  1.0
  H  H104  1  0.68114000  0.11829000  0.47028000  1.0
  H  H105  1  0.75229000  0.14175000  0.46147000  1.0
  H  H106  1  0.88408000  0.81244000  0.45705000  1.0
  H  H107  1  0.96556000  0.80376000  0.43999000  1.0
  H  H108  1  0.02723000  0.76353000  0.43884000  1.0
  H  H109  1  0.87247000  0.72203000  0.44795000  1.0
  H  H110  1  0.93381000  0.68201000  0.44516000  1.0
  H  H111  1  0.03336000  0.69431000  0.41663000  1.0
  H  H112  1  0.89745000  0.14473000  0.03623000  1.0
  H  H113  1  0.81458000  0.13677000  0.03686000  1.0
  H  H114  1  0.74431000  0.15452000  0.01053000  1.0
  H  H115  1  0.88465000  0.16128000  0.94599000  1.0
  H  H116  1  0.81461000  0.17739000  0.91966000  1.0
  H  H117  1  0.71575000  0.16103000  0.93822000  1.0
  H  H118  1  0.12367000  0.28611000  0.41302000  1.0
  H  H119  1  0.04546000  0.26691000  0.40379000  1.0
  H  H120  1  0.98718000  0.22807000  0.42180000  1.0
  H  H121  1  0.14520000  0.20136000  0.44582000  1.0
  H  H122  1  0.08724000  0.16205000  0.46243000  1.0
  H  H123  1  0.01060000  0.14596000  0.46077000  1.0
  H  H124  1  0.37684000  0.82524000  0.57610000  1.0
  H  H125  1  0.29593000  0.82057000  0.56615000  1.0
  H  H126  1  0.23701000  0.80476000  0.52666000  1.0
  H  H127  1  0.38714000  0.83204000  0.48373000  1.0
  H  H128  1  0.32776000  0.81885000  0.44456000  1.0
  H  H129  1  0.25112000  0.80630000  0.43468000  1.0
  H  H130  1  0.59334000  0.75993000  0.20366000  1.0
  H  H131  1  0.63803000  0.72061000  0.12796000  1.0
  H  H132  1  0.59358000  0.71130000  0.07793000  1.0
  H  H133  1  0.53711000  0.78697000  0.16626000  1.0
  H  H134  1  0.49187000  0.77711000  0.11649000  1.0
  H  H135  1  0.53107000  0.72613000  0.04474000  1.0
  H  H136  1  0.58934000  0.71595000  0.91228000  1.0
  H  H137  1  0.51006000  0.72637000  0.91771000  1.0
  H  H138  1  0.45392000  0.75813000  0.94882000  1.0
  H  H139  1  0.60384000  0.80700000  0.93333000  1.0
  H  H140  1  0.54697000  0.83895000  0.96170000  1.0
  H  H141  1  0.44152000  0.82806000  0.96871000  1.0
  H  H142  1  0.13196000  0.31338000  0.52608000  1.0
  H  H143  1  0.05002000  0.31288000  0.53178000  1.0
  H  H144  1  0.98418000  0.27750000  0.54005000  1.0
  H  H145  1  0.13113000  0.23774000  0.58038000  1.0
  H  H146  1  0.06523000  0.20420000  0.59059000  1.0
  H  H147  1  0.96101000  0.22505000  0.58680000  1.0
  H  H148  1  0.90652000  0.80167000  0.58332000  1.0
  H  H149  1  0.90899000  0.70884000  0.59208000  1.0
  H  H150  1  0.97364000  0.67452000  0.58044000  1.0
  H  H151  1  0.98828000  0.79807000  0.57969000  1.0
  H  H152  1  0.05263000  0.76319000  0.56522000  1.0
  H  H153  1  0.05014000  0.67039000  0.56677000  1.0
  H  H154  1  0.35174000  0.32832000  0.94437000  1.0
  H  H155  1  0.43193000  0.32070000  0.94112000  1.0
  H  H156  1  0.49586000  0.28269000  0.94369000  1.0
  H  H157  1  0.34447000  0.23569000  0.92935000  1.0
  H  H158  1  0.40850000  0.19858000  0.92887000  1.0
  H  H159  1  0.51178000  0.21713000  0.91428000  1.0
  H  H160  1  0.62616000  0.31851000  0.54634000  1.0
  H  H161  1  0.71016000  0.31555000  0.54231000  1.0
  H  H162  1  0.77289000  0.29209000  0.51075000  1.0
  H  H163  1  0.62546000  0.30301000  0.45578000  1.0
  H  H164  1  0.68841000  0.28121000  0.42413000  1.0
  H  H165  1  0.79360000  0.28950000  0.43999000  1.0
  H  H166  1  0.08889000  0.70143000  0.99648000  1.0
  H  H167  1  0.12621000  0.66183000  0.07609000  1.0
  H  H168  1  0.20243000  0.66297000  0.09646000  1.0
  H  H169  1  0.16872000  0.70586000  0.98276000  1.0
  H  H170  1  0.24497000  0.70932000  0.00471000  1.0
  H  H171  1  0.29351000  0.67071000  0.05573000  1.0
  H  H172  1  0.42425000  0.67353000  0.55993000  1.0
  H  H173  1  0.42441000  0.67587000  0.46860000  1.0
  H  H174  1  0.35882000  0.68070000  0.43302000  1.0
  H  H175  1  0.34068000  0.66218000  0.55494000  1.0
  H  H176  1  0.27449000  0.66876000  0.51931000  1.0
  H  H177  1  0.28051000  0.67737000  0.42679000  1.0
  H  H178  1  0.85054000  0.37752000  0.94066000  1.0
  H  H179  1  0.87984000  0.31272000  0.00419000  1.0
  H  H180  1  0.82499000  0.27635000  0.03029000  1.0
  H  H181  1  0.77392000  0.37088000  0.95967000  1.0
  H  H182  1  0.71891000  0.33314000  0.98480000  1.0
  H  H183  1  0.74987000  0.26362000  0.04125000  1.0
  H  H184  1  0.17024000  0.33324000  0.08154000  1.0
  H  H185  1  0.13800000  0.28183000  0.05630000  1.0
  H  H186  1  0.09865000  0.27809000  0.09008000  1.0
  H  H187  1  0.06328000  0.30390000  0.04106000  1.0
  H  H188  1  0.10675000  0.33459000  0.03817000  1.0
  H  H189  1  0.03652000  0.32709000  0.09418000  1.0
  H  H190  1  0.11244000  0.37981000  0.08981000  1.0
  H  H191  1  0.07167000  0.37557000  0.12228000  1.0
  H  H192  1  0.10288000  0.32083000  0.13905000  1.0
  H  H193  1  0.14586000  0.35214000  0.13850000  1.0
  H  H194  1  0.35201000  0.18233000  0.57666000  1.0
  H  H195  1  0.30087000  0.14885000  0.53811000  1.0
  H  H196  1  0.28472000  0.12359000  0.57338000  1.0
  H  H197  1  0.23066000  0.16913000  0.56427000  1.0
  H  H198  1  0.27443000  0.19949000  0.56339000  1.0
  H  H199  1  0.23941000  0.15835000  0.62376000  1.0
  H  H200  1  0.32008000  0.20623000  0.62817000  1.0
  H  H201  1  0.29853000  0.17874000  0.65957000  1.0
  H  H202  1  0.32451000  0.12907000  0.62834000  1.0
  H  H203  1  0.36940000  0.15849000  0.63331000  1.0
  H  H204  1  0.71298000  0.70274000  0.45076000  1.0
  H  H205  1  0.66134000  0.74534000  0.47455000  1.0
  H  H206  1  0.62141000  0.73754000  0.44182000  1.0
  H  H207  1  0.60086000  0.70737000  0.49262000  1.0
  H  H208  1  0.65498000  0.68838000  0.49562000  1.0
  H  H209  1  0.58408000  0.67749000  0.44019000  1.0
  H  H210  1  0.67749000  0.64455000  0.44608000  1.0
  H  H211  1  0.63632000  0.63722000  0.41417000  1.0
  H  H212  1  0.64261000  0.69565000  0.39413000  1.0
  H  H213  1  0.69665000  0.67624000  0.39536000  1.0
  H  H214  1  0.88961000  0.86266000  0.91908000  1.0
  H  H215  1  0.92423000  0.80768000  0.92716000  1.0
  H  H216  1  0.88445000  0.79628000  0.95862000  1.0
  H  H217  1  0.86685000  0.76958000  0.90505000  1.0
  H  H218  1  0.86622000  0.80919000  0.88380000  1.0
  H  H219  1  0.80381000  0.78947000  0.94237000  1.0
  H  H220  1  0.80494000  0.85170000  0.89649000  1.0
  H  H221  1  0.76401000  0.84229000  0.92787000  1.0
  H  H222  1  0.81955000  0.84392000  0.97268000  1.0
  H  H223  1  0.82264000  0.88195000  0.94877000  1.0
  H  H224  1  0.92171000  0.68049000  0.10694000  1.0
  H  H225  1  0.86586000  0.68550000  0.06024000  1.0
  H  H226  1  0.83613000  0.64974000  0.07597000  1.0
  H  H227  1  0.80091000  0.70146000  0.09490000  1.0
  H  H228  1  0.85293000  0.71699000  0.11098000  1.0
  H  H229  1  0.79741000  0.65739000  0.13680000  1.0
  H  H230  1  0.88857000  0.68116000  0.16502000  1.0
  H  H231  1  0.85569000  0.64633000  0.17882000  1.0
  H  H232  1  0.86844000  0.61661000  0.12524000  1.0
  H  H233  1  0.92070000  0.62923000  0.14337000  1.0
  H  H234  1  0.06043000  0.15968000  0.90623000  1.0
  H  H235  1  0.08339000  0.18791000  0.95823000  1.0
  H  H236  1  0.13395000  0.16397000  0.96043000  1.0
  H  H237  1  0.14931000  0.21974000  0.93974000  1.0
  H  H238  1  0.10805000  0.21582000  0.90702000  1.0
  H  H239  1  0.19345000  0.17317000  0.91546000  1.0
  H  H240  1  0.12150000  0.17264000  0.85936000  1.0
  H  H241  1  0.17187000  0.14827000  0.86018000  1.0
  H  H242  1  0.14816000  0.11850000  0.91080000  1.0
  H  H243  1  0.10560000  0.11532000  0.87926000  1.0
  H  H244  1  0.33523000  0.35794000  0.40372000  1.0
  H  H245  1  0.33851000  0.31246000  0.44526000  1.0
  H  H246  1  0.38622000  0.29403000  0.42525000  1.0
  H  H247  1  0.40876000  0.32576000  0.47437000  1.0
  H  H248  1  0.37999000  0.36261000  0.45967000  1.0
  H  H249  1  0.46008000  0.32760000  0.42578000  1.0
  H  H250  1  0.40982000  0.39250000  0.40534000  1.0
  H  H251  1  0.45789000  0.37497000  0.38515000  1.0
  H  H252  1  0.41639000  0.32406000  0.36957000  1.0
  H  H253  1  0.38678000  0.36052000  0.35525000  1.0
  H  H254  1  0.66948000  0.82542000  0.60741000  1.0
  H  H255  1  0.62364000  0.79771000  0.65286000  1.0
  H  H256  1  0.63279000  0.83350000  0.67942000  1.0
  H  H257  1  0.56082000  0.83841000  0.65121000  1.0
  H  H258  1  0.58517000  0.82986000  0.61139000  1.0
  H  H259  1  0.59337000  0.89329000  0.65487000  1.0
  H  H260  1  0.64772000  0.88343000  0.59023000  1.0
  H  H261  1  0.65111000  0.91662000  0.62020000  1.0
  H  H262  1  0.68517000  0.87908000  0.66188000  1.0
  H  H263  1  0.71470000  0.87624000  0.62288000  1.0
  H  H264  1  0.78581000  0.66809000  0.97069000  1.0
  H  H265  1  0.79994000  0.63524000  0.91891000  1.0
  H  H266  1  0.82872000  0.66982000  0.89996000  1.0
  H  H267  1  0.88273000  0.62934000  0.92235000  1.0
  H  H268  1  0.85728000  0.63053000  0.96301000  1.0
  H  H269  1  0.90307000  0.68974000  0.92635000  1.0
  H  H270  1  0.86195000  0.68674000  0.99753000  1.0
  H  H271  1  0.89026000  0.72179000  0.97903000  1.0
  H  H272  1  0.83328000  0.72688000  0.93545000  1.0
  H  H273  1  0.80810000  0.72747000  0.97614000  1.0
  H  H274  1  0.67351000  0.86045000  0.48950000  1.0
  H  H275  1  0.62974000  0.84508000  0.43969000  1.0
  H  H276  1  0.61987000  0.80369000  0.45559000  1.0
  H  H277  1  0.55352000  0.83885000  0.46390000  1.0
  H  H278  1  0.58572000  0.87051000  0.48494000  1.0
  H  H279  1  0.57172000  0.79722000  0.50881000  1.0
  H  H280  1  0.62047000  0.85633000  0.54287000  1.0
  H  H281  1  0.61189000  0.81518000  0.56018000  1.0
  H  H282  1  0.65616000  0.78902000  0.51694000  1.0
  H  H283  1  0.68731000  0.82194000  0.53686000  1.0
  H  H284  1  0.39492000  0.30710000  0.55144000  1.0
  H  H285  1  0.43566000  0.31607000  0.60572000  1.0
  H  H286  1  0.42088000  0.35975000  0.60491000  1.0
  H  H287  1  0.36810000  0.32827000  0.64014000  1.0
  H  H288  1  0.35811000  0.29871000  0.60720000  1.0
  H  H289  1  0.33128000  0.37356000  0.60987000  1.0
  H  H290  1  0.31541000  0.32573000  0.54965000  1.0
  H  H291  1  0.30215000  0.36943000  0.55266000  1.0
  H  H292  1  0.38196000  0.38419000  0.55432000  1.0
  H  H293  1  0.36992000  0.35814000  0.51880000  1.0
  H  H294  1  0.19607000  0.16520000  0.09984000  1.0
  H  H295  1  0.14368000  0.20819000  0.11551000  1.0
  H  H296  1  0.14407000  0.22662000  0.07464000  1.0
  H  H297  1  0.07508000  0.19674000  0.08187000  1.0
  H  H298  1  0.10322000  0.15892000  0.09441000  1.0
  H  H299  1  0.11475000  0.19468000  0.02646000  1.0
  H  H300  1  0.14921000  0.12681000  0.05399000  1.0
  H  H301  1  0.15350000  0.13976000  0.01111000  1.0
  H  H302  1  0.19630000  0.18930000  0.02595000  1.0
  H  H303  1  0.22263000  0.15304000  0.04362000  1.0
  H  H304  1  0.07464000  0.30340000  0.97861000  1.0
  H  H305  1  0.03321000  0.28932000  0.92579000  1.0
  H  H306  1  0.05107000  0.32831000  0.90762000  1.0
  H  H307  1  0.10157000  0.28206000  0.89103000  1.0
  H  H308  1  0.10919000  0.27054000  0.93411000  1.0
  H  H309  1  0.14176000  0.33458000  0.89853000  1.0
  H  H310  1  0.15450000  0.31866000  0.97402000  1.0
  H  H311  1  0.17032000  0.35578000  0.95178000  1.0
  H  H312  1  0.09137000  0.37096000  0.94261000  1.0
  H  H313  1  0.10184000  0.36332000  0.98624000  1.0
  H  H314  1  0.90445000  0.76587000  0.06487000  1.0
  H  H315  1  0.91999000  0.81331000  0.10480000  1.0
  H  H316  1  0.88056000  0.83944000  0.08303000  1.0
  H  H317  1  0.84592000  0.81526000  0.13280000  1.0
  H  H318  1  0.86206000  0.77377000  0.12087000  1.0
  H  H319  1  0.79416000  0.82030000  0.08571000  1.0
  H  H320  1  0.82188000  0.74957000  0.06190000  1.0
  H  H321  1  0.78355000  0.77782000  0.04210000  1.0
  H  H322  1  0.84352000  0.81725000  0.02908000  1.0
  H  H323  1  0.85726000  0.77601000  0.01430000  1.0
  H  H324  1  0.70852000  0.72416000  0.55047000  1.0
  H  H325  1  0.74492000  0.67937000  0.58486000  1.0
  H  H326  1  0.71579000  0.69295000  0.62171000  1.0
  H  H327  1  0.67803000  0.64415000  0.59703000  1.0
  H  H328  1  0.67491000  0.66444000  0.55690000  1.0
  H  H329  1  0.62820000  0.68696000  0.62261000  1.0
  H  H330  1  0.62250000  0.71885000  0.55208000  1.0
  H  H331  1  0.59403000  0.73230000  0.58918000  1.0
  H  H332  1  0.66451000  0.74629000  0.61693000  1.0
  H  H333  1  0.66034000  0.76708000  0.57721000  1.0
  H  H334  1  0.42325000  0.23546000  0.48198000  1.0
  H  H335  1  0.42023000  0.18609000  0.44324000  1.0
  H  H336  1  0.37469000  0.16848000  0.46645000  1.0
  H  H337  1  0.34624000  0.19703000  0.41648000  1.0
  H  H338  1  0.37542000  0.23481000  0.42692000  1.0
  H  H339  1  0.29778000  0.20228000  0.46577000  1.0
  H  H340  1  0.34867000  0.26729000  0.48388000  1.0
  H  H341  1  0.30317000  0.24879000  0.50635000  1.0
  H  H342  1  0.34778000  0.19936000  0.51993000  1.0
  H  H343  1  0.37561000  0.23703000  0.53308000  1.0
  H  H344  1  0.03901000  0.54479000  0.96799000  1.0
  H  H345  1  0.06586000  0.54427000  0.02726000  1.0
  H  H346  1  0.01000000  0.53885000  0.04236000  1.0
  H  H347  1  0.04885000  0.48460000  0.04120000  1.0
  H  H348  1  0.06341000  0.49018000  0.99795000  1.0
  H  H349  1  0.96833000  0.48326000  0.02727000  1.0
  H  H350  1  0.99670000  0.49044000  0.95305000  1.0
  H  H351  1  0.94113000  0.48520000  0.96869000  1.0
  H  H352  1  0.94448000  0.53927000  0.99810000  1.0
  H  H353  1  0.95822000  0.54460000  0.95465000  1.0
  H  H354  1  0.21375000  0.28414000  0.71906000  1.0
  H  H355  1  0.24734000  0.22696000  0.72186000  1.0
  H  H356  1  0.30229000  0.24441000  0.72551000  1.0
  H  H357  1  0.27468000  0.22823000  0.78082000  1.0
  H  H358  1  0.22462000  0.25235000  0.77507000  1.0
  H  H359  1  0.32108000  0.27966000  0.77946000  1.0
  H  H360  1  0.23367000  0.31964000  0.77130000  1.0
  H  H361  1  0.28910000  0.33629000  0.77445000  1.0
  H  H362  1  0.31100000  0.30984000  0.72150000  1.0
  H  H363  1  0.26173000  0.33475000  0.71555000  1.0
  H  H364  1  0.53005000  0.52931000  0.59122000  1.0
  H  H365  1  0.46693000  0.53513000  0.55104000  1.0
  H  H366  1  0.50414000  0.53222000  0.51600000  1.0
  H  H367  1  0.46845000  0.47785000  0.52622000  1.0
  H  H368  1  0.48579000  0.47812000  0.56934000  1.0
  H  H369  1  0.54652000  0.47580000  0.50689000  1.0
  H  H370  1  0.57333000  0.47413000  0.58204000  1.0
  H  H371  1  0.60998000  0.47111000  0.54669000  1.0
  H  H372  1  0.59039000  0.52820000  0.52838000  1.0
  H  H373  1  0.60848000  0.52860000  0.57135000  1.0
  H  H374  1  0.71696000  0.69647000  0.77264000  1.0
  H  H375  1  0.69249000  0.75631000  0.77702000  1.0
  H  H376  1  0.74810000  0.76916000  0.78791000  1.0
  H  H377  1  0.73392000  0.77995000  0.72883000  1.0
  H  H378  1  0.71673000  0.73737000  0.72170000  1.0
  H  H379  1  0.81039000  0.76244000  0.74209000  1.0
  H  H380  1  0.77955000  0.68922000  0.72921000  1.0
  H  H381  1  0.83477000  0.70296000  0.73994000  1.0
  H  H382  1  0.80926000  0.72259000  0.79519000  1.0
  H  H383  1  0.79363000  0.67960000  0.78880000  1.0
  H  H384  1  0.75851000  0.76985000  0.27220000  1.0
  H  H385  1  0.83152000  0.79861000  0.26335000  1.0
  H  H386  1  0.80383000  0.83850000  0.26049000  1.0
  H  H387  1  0.83332000  0.82986000  0.31763000  1.0
  H  H388  1  0.80582000  0.79010000  0.32078000  1.0
  H  H389  1  0.76249000  0.86042000  0.31612000  1.0
  H  H390  1  0.71341000  0.79210000  0.32071000  1.0
  H  H391  1  0.68909000  0.83310000  0.31800000  1.0
  H  H392  1  0.71843000  0.84071000  0.26106000  1.0
  H  H393  1  0.68743000  0.80230000  0.26381000  1.0
  H  H394  1  0.27518000  0.27780000  0.22734000  1.0
  H  H395  1  0.20242000  0.24911000  0.22174000  1.0
  H  H396  1  0.22802000  0.20895000  0.22851000  1.0
  H  H397  1  0.19351000  0.22920000  0.28050000  1.0
  H  H398  1  0.22329000  0.26815000  0.27800000  1.0
  H  H399  1  0.26388000  0.19720000  0.28722000  1.0
  H  H400  1  0.31179000  0.26597000  0.28510000  1.0
  H  H401  1  0.33697000  0.22571000  0.29206000  1.0
  H  H402  1  0.31570000  0.20665000  0.23575000  1.0
  H  H403  1  0.34592000  0.24545000  0.23316000  1.0
  H  H404  1  0.46880000  0.98629000  0.56098000  1.0
  H  H405  1  0.54706000  0.98816000  0.54029000  1.0
  H  H406  1  0.52800000  0.98750000  0.49755000  1.0
  H  H407  1  0.54525000  0.04520000  0.51482000  1.0
  H  H408  1  0.50984000  0.04164000  0.55079000  1.0
  H  H409  1  0.48135000  0.03943000  0.47603000  1.0
  H  H410  1  0.42130000  0.03491000  0.53886000  1.0
  H  H411  1  0.40383000  0.03439000  0.49580000  1.0
  H  H412  1  0.44277000  0.98089000  0.48598000  1.0
  H  H413  1  0.40580000  0.97717000  0.52111000  1.0
  H  H414  1  0.01217000  0.00581000  0.99296000  1.0
  H  H415  1  0.07847000  0.00175000  0.03030000  1.0
  H  H416  1  0.04390000  0.00312000  0.06693000  1.0
  H  H417  1  0.06490000  0.94489000  0.05424000  1.0
  H  H418  1  0.04469000  0.94878000  0.01200000  1.0
  H  H419  1  0.98909000  0.95325000  0.07717000  1.0
  H  H420  1  0.95689000  0.95719000  0.00335000  1.0
  H  H421  1  0.92289000  0.95854000  0.04025000  1.0
  H  H422  1  0.95726000  0.01137000  0.05835000  1.0
  H  H423  1  0.93649000  0.01525000  0.01624000  1.0
  C  C424  1  0.01941000  0.33538000  0.97463000  1.0
  C  C425  1  0.99849000  0.44245000  0.00118000  1.0
  C  C426  1  0.90441000  0.37456000  0.97217000  1.0
  C  C427  1  0.03407000  0.36691000  0.05808000  1.0
  C  C428  1  0.23378000  0.21197000  0.62055000  1.0
  C  C429  1  0.17389000  0.29850000  0.56410000  1.0
  C  C430  1  0.25598000  0.27835000  0.67667000  1.0
  C  C431  1  0.28351000  0.33359000  0.61177000  1.0
  C  C432  1  0.59021000  0.66429000  0.58345000  1.0
  C  C433  1  0.54043000  0.57408000  0.56317000  1.0
  C  C434  1  0.46383000  0.64767000  0.52652000  1.0
  C  C435  1  0.59667000  0.64110000  0.47823000  1.0
  C  C436  1  0.77930000  0.78395000  0.89287000  1.0
  C  C437  1  0.63690000  0.75030000  0.89939000  1.0
  C  C438  1  0.72747000  0.71144000  0.82312000  1.0
  C  C439  1  0.75472000  0.69573000  0.93131000  1.0
  C  C440  1  0.93666000  0.66446000  0.96627000  1.0
  C  C441  1  0.00926000  0.58669000  0.99212000  1.0
  C  C442  1  0.06364000  0.66140000  0.02264000  1.0
  C  C443  1  0.92690000  0.63833000  0.07461000  1.0
  C  C444  1  0.19153000  0.21359000  0.88061000  1.0
  C  C445  1  0.30656000  0.30089000  0.91719000  1.0
  C  C446  1  0.27764000  0.28561000  0.82082000  1.0
  C  C447  1  0.18638000  0.29608000  0.91560000  1.0
  C  C448  1  0.45121000  0.33759000  0.54201000  1.0
  C  C449  1  0.53483000  0.43190000  0.53605000  1.0
  C  C450  1  0.59270000  0.34343000  0.50861000  1.0
  C  C451  1  0.46866000  0.37183000  0.45508000  1.0
  C  C452  1  0.71241000  0.81232000  0.64682000  1.0
  C  C453  1  0.87002000  0.77021000  0.61332000  1.0
  C  C454  1  0.79624000  0.74612000  0.69232000  1.0
  C  C455  1  0.74608000  0.74933000  0.58821000  1.0
  C  C456  1  0.70500000  0.74265000  0.41591000  1.0
  C  C457  1  0.83851000  0.78540000  0.42914000  1.0
  C  C458  1  0.76160000  0.83160000  0.36140000  1.0
  C  C459  1  0.70694000  0.81820000  0.46881000  1.0
  C  C460  1  0.18170000  0.29273000  0.11534000  1.0
  C  C461  1  0.32799000  0.29278000  0.09675000  1.0
  C  C462  1  0.27865000  0.24534000  0.18520000  1.0
  C  C463  1  0.22708000  0.21137000  0.08564000  1.0
  C  C464  1  0.80296000  0.70385000  0.16336000  1.0
  C  C465  1  0.65802000  0.75409000  0.18806000  1.0
  C  C466  1  0.75815000  0.79043000  0.22314000  1.0
  C  C467  1  0.77265000  0.77676000  0.11207000  1.0
  C  C468  1  0.32654000  0.31133000  0.37842000  1.0
  C  C469  1  0.17461000  0.25355000  0.40176000  1.0
  C  C470  1  0.25988000  0.23111000  0.32849000  1.0
  C  C471  1  0.28686000  0.24685000  0.43767000  1.0
  C  C472  1  0.53509000  0.83618000  0.53260000  1.0
  C  C473  1  0.48178000  0.94095000  0.53465000  1.0
  C  C474  1  0.41581000  0.85627000  0.54747000  1.0
  C  C475  1  0.56285000  0.89365000  0.60636000  1.0
  C  C476  1  0.06741000  0.15619000  0.02835000  1.0
  C  C477  1  0.01426000  0.05049000  0.02219000  1.0
  C  C478  1  0.93370000  0.12733000  0.99616000  1.0
  C  C479  1  0.06845000  0.12210000  0.94402000  1.0
  C  C480  1  0.43768000  0.19278000  0.51202000  1.0
  C  C481  1  0.46869000  0.08257000  0.50635000  1.0
  C  C482  1  0.54528000  0.15365000  0.53737000  1.0
  C  C483  1  0.37962000  0.13464000  0.56984000  1.0
  C  C484  1  0.93326000  0.80521000  0.03645000  1.0
  C  C485  1  0.98658000  0.90944000  0.04648000  1.0
  C  C486  1  0.06255000  0.83370000  0.02531000  1.0
  C  C487  1  0.90802000  0.86013000  0.97061000  1.0
  C  C488  1  0.42262000  0.72669000  0.09054000  1.0
  C  C489  1  0.47824000  0.75683000  0.05421000  1.0
  C  C490  1  0.43343000  0.75088000  0.06240000  1.0
  C  C491  1  0.39915000  0.76677000  0.04379000  1.0
  C  C492  1  0.41008000  0.78716000  0.01585000  1.0
  C  C493  1  0.45542000  0.79540000  0.00961000  1.0
  C  C494  1  0.48903000  0.78210000  0.03093000  1.0
  C  C495  1  0.37378000  0.79999000  0.99267000  1.0
  C  C496  1  0.53671000  0.79386000  0.02837000  1.0
  C  C497  1  0.28636000  0.78129000  0.08437000  1.0
  C  C498  1  0.27037000  0.74799000  0.08599000  1.0
  C  C499  1  0.29091000  0.72277000  0.06633000  1.0
  C  C500  1  0.33052000  0.73049000  0.04858000  1.0
  C  C501  1  0.35177000  0.76173000  0.05403000  1.0
  C  C502  1  0.32898000  0.78750000  0.07125000  1.0
  C  C503  1  0.23148000  0.73951000  0.10835000  1.0
  C  C504  1  0.35055000  0.70527000  0.02458000  1.0
  C  C505  1  0.34891000  0.82218000  0.07478000  1.0
  C  C506  1  0.58542000  0.24140000  0.93492000  1.0
  C  C507  1  0.52036000  0.21610000  0.96704000  1.0
  C  C508  1  0.56539000  0.22709000  0.96666000  1.0
  C  C509  1  0.59223000  0.22347000  0.99579000  1.0
  C  C510  1  0.57236000  0.21365000  0.02642000  1.0
  C  C511  1  0.52652000  0.20597000  0.02741000  1.0
  C  C512  1  0.50219000  0.20327000  0.99709000  1.0
  C  C513  1  0.59922000  0.21087000  0.05846000  1.0
  C  C514  1  0.45727000  0.18622000  0.99639000  1.0
  C  C515  1  0.71109000  0.25820000  0.99941000  1.0
  C  C516  1  0.73254000  0.23575000  0.97700000  1.0
  C  C517  1  0.71114000  0.20535000  0.96790000  1.0
  C  C518  1  0.66611000  0.20010000  0.97730000  1.0
  C  C519  1  0.64188000  0.22638000  0.99275000  1.0
  C  C520  1  0.66472000  0.25521000  0.00429000  1.0
  C  C521  1  0.77700000  0.24438000  0.96164000  1.0
  C  C522  1  0.64357000  0.16694000  0.96976000  1.0
  C  C523  1  0.64079000  0.28217000  0.02384000  1.0
  C  C524  1  0.86331000  0.27204000  0.47102000  1.0
  C  C525  1  0.78999000  0.24115000  0.46185000  1.0
  C  C526  1  0.83423000  0.24124000  0.47472000  1.0
  C  C527  1  0.85128000  0.21199000  0.49026000  1.0
  C  C528  1  0.82303000  0.18437000  0.49626000  1.0
  C  C529  1  0.78015000  0.18361000  0.48195000  1.0
  C  C530  1  0.76477000  0.21117000  0.46276000  1.0
  C  C531  1  0.84019000  0.15392000  0.51498000  1.0
  C  C532  1  0.72144000  0.20886000  0.44343000  1.0
  C  C533  1  0.96274000  0.20742000  0.53661000  1.0
  C  C534  1  0.98731000  0.18807000  0.51328000  1.0
  C  C535  1  0.97107000  0.18398000  0.48017000  1.0
  C  C536  1  0.92709000  0.19357000  0.47232000  1.0
  C  C537  1  0.89996000  0.20826000  0.49718000  1.0
  C  C538  1  0.91837000  0.21716000  0.52867000  1.0
  C  C539  1  0.03090000  0.17219000  0.52384000  1.0
  C  C540  1  0.90760000  0.18596000  0.43803000  1.0
  C  C541  1  0.89044000  0.23573000  0.55420000  1.0
  C  C542  1  0.10995000  0.71920000  0.42483000  1.0
  C  C543  1  0.05231000  0.70048000  0.46744000  1.0
  C  C544  1  0.09552000  0.71304000  0.46075000  1.0
  C  C545  1  0.12542000  0.71855000  0.48771000  1.0
  C  C546  1  0.11107000  0.71446000  0.52117000  1.0
  C  C547  1  0.06853000  0.70107000  0.52765000  1.0
  C  C548  1  0.04053000  0.69170000  0.50056000  1.0
  C  C549  1  0.14277000  0.72088000  0.55007000  1.0
  C  C550  1  0.99795000  0.67245000  0.50653000  1.0
  C  C551  1  0.22999000  0.76632000  0.46366000  1.0
  C  C552  1  0.25789000  0.73938000  0.45349000  1.0
  C  C553  1  0.24491000  0.70591000  0.46063000  1.0
  C  C554  1  0.20258000  0.69937000  0.47424000  1.0
  C  C555  1  0.17301000  0.72612000  0.48053000  1.0
  C  C556  1  0.18723000  0.75960000  0.47663000  1.0
  C  C557  1  0.30169000  0.74625000  0.43619000  1.0
  C  C558  1  0.18701000  0.66348000  0.47858000  1.0
  C  C559  1  0.15485000  0.78811000  0.48265000  1.0
  C  C560  1  0.14051000  0.81753000  0.03821000  1.0
  C  C561  1  0.17761000  0.81075000  0.09203000  1.0
  C  C562  1  0.13849000  0.81295000  0.07305000  1.0
  C  C563  1  0.22133000  0.81777000  0.04175000  1.0
  C  C564  1  0.18226000  0.81971000  0.02279000  1.0
  C  C565  1  0.21946000  0.81254000  0.07648000  1.0
  C  C566  1  0.40317000  0.27052000  0.07973000  1.0
  C  C567  1  0.48166000  0.25699000  0.07192000  1.0
  C  C568  1  0.44806000  0.28030000  0.07820000  1.0
  C  C569  1  0.42652000  0.21305000  0.06914000  1.0
  C  C570  1  0.39271000  0.23650000  0.07483000  1.0
  C  C571  1  0.47123000  0.22321000  0.06678000  1.0
  C  C572  1  0.62732000  0.16104000  0.53184000  1.0
  C  C573  1  0.70442000  0.17930000  0.52718000  1.0
  C  C574  1  0.66273000  0.18137000  0.54250000  1.0
  C  C575  1  0.67617000  0.13649000  0.49000000  1.0
  C  C576  1  0.63489000  0.13798000  0.50583000  1.0
  C  C577  1  0.71128000  0.15741000  0.50004000  1.0
  C  C578  1  0.91429000  0.76605000  0.44284000  1.0
  C  C579  1  0.99353000  0.75427000  0.44041000  1.0
  C  C580  1  0.95842000  0.77722000  0.44111000  1.0
  C  C581  1  0.94096000  0.70854000  0.44400000  1.0
  C  C582  1  0.90594000  0.73145000  0.44499000  1.0
  C  C583  1  0.98498000  0.71967000  0.44208000  1.0
  C  C584  1  0.85501000  0.14676000  0.99336000  1.0
  C  C585  1  0.77480000  0.15552000  0.99623000  1.0
  C  C586  1  0.81479000  0.14532000  0.01115000  1.0
  C  C587  1  0.81436000  0.16823000  0.94517000  1.0
  C  C588  1  0.85432000  0.15838000  0.96012000  1.0
  C  C589  1  0.77465000  0.16809000  0.96339000  1.0
  C  C590  1  0.09986000  0.23672000  0.42233000  1.0
  C  C591  1  0.02161000  0.22191000  0.42682000  1.0
  C  C592  1  0.05483000  0.24400000  0.41649000  1.0
  C  C593  1  0.07780000  0.18486000  0.44961000  1.0
  C  C594  1  0.11104000  0.20709000  0.43947000  1.0
  C  C595  1  0.03271000  0.19224000  0.44373000  1.0
  C  C596  1  0.34577000  0.82872000  0.52818000  1.0
  C  C597  1  0.26955000  0.81116000  0.51712000  1.0
  C  C598  1  0.30313000  0.82024000  0.53961000  1.0
  C  C599  1  0.32049000  0.81897000  0.47106000  1.0
  C  C600  1  0.35430000  0.82744000  0.49358000  1.0
  C  C601  1  0.27800000  0.81009000  0.48263000  1.0
  C  C602  1  0.59165000  0.75551000  0.15061000  1.0
  C  C603  1  0.58153000  0.72874000  0.09656000  1.0
  C  C604  1  0.60729000  0.73441000  0.12512000  1.0
  C  C605  1  0.52426000  0.76540000  0.11806000  1.0
  C  C606  1  0.55016000  0.77117000  0.14659000  1.0
  C  C607  1  0.53957000  0.74383000  0.09267000  1.0
  C  C608  1  0.56154000  0.76388000  0.92256000  1.0
  C  C609  1  0.48623000  0.76922000  0.94445000  1.0
  C  C610  1  0.51829000  0.75117000  0.92674000  1.0
  C  C611  1  0.53854000  0.81462000  0.95158000  1.0
  C  C612  1  0.57100000  0.79628000  0.93465000  1.0
  C  C613  1  0.49708000  0.80036000  0.95854000  1.0
  C  C614  1  0.09572000  0.27885000  0.55620000  1.0
  C  C615  1  0.01610000  0.26914000  0.54950000  1.0
  C  C616  1  0.05361000  0.28929000  0.54487000  1.0
  C  C617  1  0.06168000  0.22801000  0.57791000  1.0
  C  C618  1  0.09932000  0.24776000  0.57269000  1.0
  C  C619  1  0.02019000  0.23787000  0.56528000  1.0
  C  C620  1  0.94383000  0.75645000  0.58821000  1.0
  C  C621  1  0.97721000  0.70148000  0.58020000  1.0
  C  C622  1  0.94030000  0.72130000  0.58774000  1.0
  C  C623  1  0.02152000  0.75124000  0.57167000  1.0
  C  C624  1  0.98484000  0.77109000  0.57996000  1.0
  C  C625  1  0.01788000  0.71622000  0.57120000  1.0
  C  C626  1  0.38309000  0.28166000  0.93367000  1.0
  C  C627  1  0.46296000  0.27238000  0.94004000  1.0
  C  C628  1  0.42641000  0.29404000  0.93857000  1.0
  C  C629  1  0.41378000  0.22523000  0.93178000  1.0
  C  C630  1  0.37711000  0.24677000  0.93114000  1.0
  C  C631  1  0.45685000  0.23770000  0.93679000  1.0
  C  C632  1  0.66334000  0.31219000  0.50129000  1.0
  C  C633  1  0.74089000  0.29477000  0.49855000  1.0
  C  C634  1  0.70520000  0.30820000  0.51649000  1.0
  C  C635  1  0.69339000  0.28872000  0.44990000  1.0
  C  C636  1  0.65765000  0.30184000  0.46788000  1.0
  C  C637  1  0.73497000  0.28445000  0.46520000  1.0
  C  C638  1  0.14155000  0.68252000  0.02703000  1.0
  C  C639  1  0.19524000  0.67227000  0.07157000  1.0
  C  C640  1  0.15170000  0.67093000  0.05945000  1.0
  C  C641  1  0.21925000  0.69835000  0.02006000  1.0
  C  C642  1  0.17581000  0.69634000  0.00759000  1.0
  C  C643  1  0.22902000  0.68684000  0.05247000  1.0
  C  C644  1  0.38750000  0.66723000  0.51441000  1.0
  C  C645  1  0.35440000  0.67690000  0.45962000  1.0
  C  C646  1  0.39196000  0.67339000  0.47992000  1.0
  C  C647  1  0.30712000  0.67016000  0.50806000  1.0
  C  C648  1  0.34478000  0.66633000  0.52835000  1.0
  C  C649  1  0.31157000  0.67556000  0.47348000  1.0
  C  C650  1  0.83120000  0.34545000  0.98053000  1.0
  C  C651  1  0.81357000  0.29716000  0.01516000  1.0
  C  C652  1  0.84502000  0.31842000  0.00061000  1.0
  C  C653  1  0.75395000  0.32894000  0.98951000  1.0
  C  C654  1  0.78536000  0.35043000  0.97528000  1.0
  C  C655  1  0.76779000  0.30168000  0.00897000  1.0
  C  C656  1  0.15021000  0.31618000  0.09758000  1.0
  C  C657  1  0.11839000  0.29615000  0.07499000  1.0
  C  C658  1  0.08673000  0.31946000  0.05596000  1.0
  C  C659  1  0.06011000  0.34267000  0.07949000  1.0
  C  C660  1  0.09172000  0.36143000  0.10371000  1.0
  C  C661  1  0.12293000  0.33729000  0.12245000  1.0
  C  C662  1  0.34223000  0.15612000  0.58270000  1.0
  C  C663  1  0.29724000  0.14867000  0.56580000  1.0
  C  C664  1  0.26352000  0.17569000  0.57530000  1.0
  C  C665  1  0.25855000  0.17993000  0.61371000  1.0
  C  C666  1  0.30406000  0.18142000  0.63220000  1.0
  C  C667  1  0.33682000  0.15420000  0.62076000  1.0
  C  C668  1  0.68620000  0.71335000  0.43456000  1.0
  C  C669  1  0.64839000  0.72596000  0.45710000  1.0
  C  C670  1  0.62910000  0.69738000  0.47772000  1.0
  C  C671  1  0.61276000  0.66834000  0.45536000  1.0
  C  C672  1  0.64994000  0.65635000  0.43160000  1.0
  C  C673  1  0.66890000  0.68566000  0.41109000  1.0
  C  C674  1  0.87943000  0.84839000  0.94169000  1.0
  C  C675  1  0.88912000  0.81096000  0.93523000  1.0
  C  C676  1  0.85897000  0.79659000  0.90803000  1.0
  C  C677  1  0.80970000  0.80124000  0.91749000  1.0
  C  C678  1  0.79944000  0.83876000  0.92078000  1.0
  C  C679  1  0.82917000  0.85457000  0.94800000  1.0
  C  C680  1  0.90107000  0.65846000  0.09969000  1.0
  C  C681  1  0.85789000  0.67108000  0.08327000  1.0
  C  C682  1  0.83270000  0.69403000  0.10710000  1.0
  C  C683  1  0.82269000  0.67729000  0.14105000  1.0
  C  C684  1  0.86509000  0.66136000  0.15653000  1.0
  C  C685  1  0.88960000  0.63860000  0.13148000  1.0
  C  C686  1  0.08790000  0.14804000  0.92094000  1.0
  C  C687  1  0.10937000  0.17535000  0.94298000  1.0
  C  C688  1  0.13306000  0.20190000  0.92222000  1.0
  C  C689  1  0.16835000  0.18608000  0.89944000  1.0
  C  C690  1  0.14614000  0.16023000  0.87613000  1.0
  C  C691  1  0.12254000  0.13290000  0.89668000  1.0
  C  C692  1  0.35541000  0.33540000  0.39753000  1.0
  C  C693  1  0.36881000  0.31805000  0.43045000  1.0
  C  C694  1  0.39901000  0.34009000  0.45163000  1.0
  C  C695  1  0.44082000  0.35054000  0.43220000  1.0
  C  C696  1  0.42749000  0.36870000  0.39960000  1.0
  C  C697  1  0.39713000  0.34633000  0.37791000  1.0
  C  C698  1  0.67370000  0.83265000  0.63416000  1.0
  C  C699  1  0.63029000  0.82510000  0.65293000  1.0
  C  C700  1  0.59105000  0.84246000  0.63577000  1.0
  C  C701  1  0.59799000  0.88057000  0.63038000  1.0
  C  C702  1  0.64527000  0.88928000  0.61734000  1.0
  C  C703  1  0.68271000  0.87039000  0.63548000  1.0
  C  C704  1  0.79579000  0.68164000  0.94756000  1.0
  C  C705  1  0.82107000  0.65745000  0.92423000  1.0
  C  C706  1  0.86486000  0.64570000  0.94036000  1.0
  C  C707  1  0.89446000  0.67583000  0.94961000  1.0
  C  C708  1  0.86934000  0.69951000  0.97342000  1.0
  C  C709  1  0.82569000  0.71132000  0.95774000  1.0
  C  C710  1  0.66666667  0.83337000  0.48556000  1.0
  C  C711  1  0.62489000  0.83030000  0.46296000  1.0
  C  C712  1  0.58266000  0.84308000  0.48057000  1.0
  C  C713  1  0.57558000  0.82449000  0.51389000  1.0
  C  C714  1  0.61643000  0.82939000  0.53658000  1.0
  C  C715  1  0.65874000  0.81666000  0.51990000  1.0
  C  C716  1  0.40675000  0.33262000  0.55845000  1.0
  C  C717  1  0.41034000  0.33432000  0.59673000  1.0
  C  C718  1  0.36531000  0.32554000  0.61252000  1.0
  C  C719  1  0.32682000  0.34794000  0.59946000  1.0
  C  C720  1  0.32633000  0.34994000  0.56076000  1.0
  C  C721  1  0.37221000  0.35847000  0.54650000  1.0
  C  C722  1  0.19121000  0.18533000  0.08091000  1.0
  C  C723  1  0.14602000  0.20249000  0.08834000  1.0
  C  C724  1  0.10562000  0.18146000  0.07814000  1.0
  C  C725  1  0.10980000  0.17135000  0.04133000  1.0
  C  C726  1  0.15111000  0.14902000  0.03723000  1.0
  C  C727  1  0.19296000  0.16955000  0.04543000  1.0
  C  C728  1  0.06366000  0.32380000  0.96142000  1.0
  C  C729  1  0.05979000  0.30867000  0.92629000  1.0
  C  C730  1  0.10409000  0.29208000  0.91693000  1.0
  C  C731  1  0.14426000  0.31625000  0.91943000  1.0
  C  C732  1  0.14497000  0.33558000  0.95304000  1.0
  C  C733  1  0.09964000  0.35120000  0.96127000  1.0
  C  C734  1  0.89598000  0.79210000  0.05782000  1.0
  C  C735  1  0.88887000  0.81310000  0.08967000  1.0
  C  C736  1  0.85124000  0.79847000  0.11097000  1.0
  C  C737  1  0.80712000  0.79477000  0.09112000  1.0
  C  C738  1  0.81444000  0.77644000  0.05744000  1.0
  C  C739  1  0.85264000  0.79148000  0.03717000  1.0
  C  C740  1  0.70878000  0.72631000  0.57827000  1.0
  C  C741  1  0.71374000  0.69120000  0.59394000  1.0
  C  C742  1  0.67416000  0.66879000  0.58441000  1.0
  C  C743  1  0.62942000  0.68480000  0.59485000  1.0
  C  C744  1  0.62493000  0.72022000  0.57984000  1.0
  C  C745  1  0.66454000  0.74226000  0.58936000  1.0
  C  C746  1  0.40602000  0.21215000  0.48998000  1.0
  C  C747  1  0.39083000  0.19236000  0.45884000  1.0
  C  C748  1  0.35779000  0.21287000  0.43767000  1.0
  C  C749  1  0.31726000  0.22473000  0.45834000  1.0
  C  C750  1  0.33248000  0.24316000  0.49039000  1.0
  C  C751  1  0.36514000  0.22216000  0.51087000  1.0
  C  C752  1  0.01492000  0.54952000  0.98858000  1.0
  C  C753  1  0.03273000  0.53351000  0.02108000  1.0
  C  C754  1  0.03744000  0.49547000  0.01703000  1.0
  C  C755  1  0.99278000  0.47938000  0.00676000  1.0
  C  C756  1  0.97445000  0.49577000  0.97462000  1.0
  C  C757  1  0.97001000  0.53376000  0.97875000  1.0
  C  C758  1  0.24988000  0.28094000  0.71382000  1.0
  C  C759  1  0.26655000  0.24885000  0.73121000  1.0
  C  C760  1  0.26077000  0.25129000  0.76919000  1.0
  C  C761  1  0.28467000  0.28239000  0.78359000  1.0
  C  C762  1  0.26924000  0.31455000  0.76553000  1.0
  C  C763  1  0.27494000  0.31163000  0.72750000  1.0
  C  C764  1  0.53717000  0.53662000  0.56486000  1.0
  C  C765  1  0.49890000  0.52418000  0.54237000  1.0
  C  C766  1  0.49536000  0.48593000  0.54361000  1.0
  C  C767  1  0.53956000  0.46925000  0.53346000  1.0
  C  C768  1  0.57811000  0.48202000  0.55558000  1.0
  C  C769  1  0.58139000  0.52034000  0.55422000  1.0
  C  C770  1  0.73799000  0.71477000  0.78652000  1.0
  C  C771  1  0.72834000  0.75040000  0.77361000  1.0
  C  C772  1  0.73971000  0.75354000  0.73648000  1.0
  C  C773  1  0.78850000  0.74383000  0.72945000  1.0
  C  C774  1  0.79880000  0.70850000  0.74320000  1.0
  C  C775  1  0.78716000  0.70573000  0.78045000  1.0
  C  C776  1  0.75928000  0.79512000  0.26038000  1.0
  C  C777  1  0.80193000  0.81304000  0.27172000  1.0
  C  C778  1  0.80304000  0.81576000  0.31005000  1.0
  C  C779  1  0.76134000  0.83366000  0.32386000  1.0
  C  C780  1  0.71809000  0.81769000  0.31025000  1.0
  C  C781  1  0.71840000  0.81511000  0.27207000  1.0
  C  C782  1  0.27504000  0.25037000  0.22234000  1.0
  C  C783  1  0.23039000  0.23609000  0.23460000  1.0
  C  C784  1  0.22529000  0.24088000  0.27245000  1.0
  C  C785  1  0.26436000  0.22472000  0.29163000  1.0
  C  C786  1  0.30911000  0.23880000  0.27916000  1.0
  C  C787  1  0.31409000  0.23393000  0.24130000  1.0
  C  C788  1  0.47604000  0.97830000  0.53484000  1.0
  C  C789  1  0.51921000  0.99546000  0.52339000  1.0
  C  C790  1  0.51412000  0.03361000  0.52431000  1.0
  C  C791  1  0.47436000  0.04538000  0.50273000  1.0
  C  C792  1  0.43125000  0.02727000  0.51315000  1.0
  C  C793  1  0.43703000  0.98908000  0.51224000  1.0
  C  C794  1  0.00888000  0.01322000  0.01971000  1.0
  C  C795  1  0.04512000  0.99515000  0.04026000  1.0
  C  C796  1  0.03918000  0.95706000  0.03827000  1.0
  C  C797  1  0.99252000  0.94656000  0.05025000  1.0
  C  C798  1  0.95618000  0.96502000  0.03009000  1.0
  C  C799  1  0.96234000  0.00303000  0.03205000  1.0
  N  N800  1  0.10103000  0.81760000  0.01770000  1.0
  N  N801  1  0.26002000  0.80936000  0.09576000  1.0
  N  N802  1  0.36982000  0.29621000  0.08426000  1.0
  N  N803  1  0.50618000  0.19945000  0.05956000  1.0
  N  N804  1  0.58586000  0.16204000  0.54996000  1.0
  N  N805  1  0.75464000  0.15311000  0.48500000  1.0
  N  N806  1  0.87865000  0.79009000  0.44405000  1.0
  N  N807  1  0.02027000  0.69538000  0.44074000  1.0
  N  N808  1  0.89620000  0.13964000  0.01057000  1.0
  N  N809  1  0.73471000  0.18069000  0.94778000  1.0
  N  N810  1  0.13299000  0.26088000  0.41270000  1.0
  N  N811  1  0.99817000  0.16948000  0.45411000  1.0
  N  N812  1  0.38013000  0.83601000  0.55238000  1.0
  N  N813  1  0.24309000  0.80089000  0.45953000  1.0
  N  N814  1  0.61364000  0.75738000  0.18260000  1.0
  N  N815  1  0.51148000  0.73303000  0.06524000  1.0
  N  N816  1  0.59575000  0.74162000  0.91036000  1.0
  N  N817  1  0.46778000  0.81693000  0.98170000  1.0
  N  N818  1  0.13426000  0.29855000  0.54759000  1.0
  N  N819  1  0.98271000  0.21572000  0.56877000  1.0
  N  N820  1  0.90603000  0.77791000  0.59432000  1.0
  N  N821  1  0.05561000  0.69581000  0.56210000  1.0
  N  N822  1  0.34637000  0.30507000  0.93302000  1.0
  N  N823  1  0.49398000  0.21487000  0.93653000  1.0
  N  N824  1  0.62660000  0.32447000  0.52086000  1.0
  N  N825  1  0.77105000  0.27064000  0.44603000  1.0
  N  N826  1  0.09666000  0.68300000  0.01416000  1.0
  N  N827  1  0.27313000  0.68895000  0.06636000  1.0
  N  N828  1  0.42585000  0.66351000  0.53580000  1.0
  N  N829  1  0.27274000  0.67765000  0.45227000  1.0
  N  N830  1  0.86226000  0.36638000  0.96269000  1.0
  N  N831  1  0.73552000  0.27902000  0.02297000  1.0
  O  O832  1  0.97293000  0.42112000  0.01725000  1.0
  O  O833  1  0.02771000  0.43165000  0.97933000  1.0
  O  O834  1  0.92181000  0.36451000  0.00074000  1.0
  O  O835  1  0.92796000  0.39436000  0.95288000  1.0
  O  O836  1  0.99391000  0.35894000  0.04740000  1.0
  O  O837  1  0.05521000  0.39161000  0.04336000  1.0
  O  O838  1  0.01242000  0.36722000  0.98091000  1.0
  O  O839  1  0.99260000  0.31306000  0.98781000  1.0
  O  O840  1  0.17826000  0.28409000  0.59357000  1.0
  O  O841  1  0.20825000  0.31340000  0.55046000  1.0
  O  O842  1  0.22236000  0.28441000  0.65643000  1.0
  O  O843  1  0.29471000  0.26968000  0.66418000  1.0
  O  O844  1  0.26942000  0.30531000  0.59864000  1.0
  O  O845  1  0.26400000  0.34616000  0.63828000  1.0
  O  O846  1  0.24806000  0.23966000  0.60644000  1.0
  O  O847  1  0.20108000  0.21286000  0.64222000  1.0
  O  O848  1  0.54697000  0.58917000  0.53438000  1.0
  O  O849  1  0.53544000  0.59198000  0.59045000  1.0
  O  O850  1  0.49912000  0.64894000  0.54596000  1.0
  O  O851  1  0.46597000  0.63096000  0.49823000  1.0
  O  O852  1  0.55777000  0.64556000  0.49237000  1.0
  O  O853  1  0.62566000  0.62107000  0.49267000  1.0
  O  O854  1  0.59301000  0.64724000  0.55542000  1.0
  O  O855  1  0.55149000  0.66844000  0.59795000  1.0
  O  O856  1  0.66733000  0.72689000  0.89626000  1.0
  O  O857  1  0.64674000  0.78130000  0.89145000  1.0
  O  O858  1  0.72581000  0.73811000  0.84230000  1.0
  O  O859  1  0.72305000  0.68157000  0.83644000  1.0
  O  O860  1  0.75564000  0.70388000  0.89943000  1.0
  O  O861  1  0.72367000  0.70854000  0.95048000  1.0
  O  O862  1  0.74192000  0.77081000  0.90385000  1.0
  O  O863  1  0.79515000  0.77393000  0.86393000  1.0
  O  O864  1  0.99210000  0.59948000  0.01949000  1.0
  O  O865  1  0.01725000  0.60622000  0.96641000  1.0
  O  O866  1  0.02344000  0.66623000  0.01060000  1.0
  O  O867  1  0.07124000  0.63538000  0.04192000  1.0
  O  O868  1  0.96169000  0.65244000  0.06065000  1.0
  O  O869  1  0.90853000  0.61212000  0.06029000  1.0
  O  O870  1  0.93438000  0.64898000  0.99525000  1.0
  O  O871  1  0.97525000  0.67384000  0.95424000  1.0
  O  O872  1  0.29738000  0.27336000  0.90041000  1.0
  O  O873  1  0.27737000  0.32532000  0.91788000  1.0
  O  O874  1  0.25716000  0.26189000  0.83754000  1.0
  O  O875  1  0.29257000  0.31205000  0.83683000  1.0
  O  O876  1  0.20683000  0.29475000  0.88659000  1.0
  O  O877  1  0.19974000  0.27637000  0.94000000  1.0
  O  O878  1  0.22747000  0.22710000  0.89376000  1.0
  O  O879  1  0.17155000  0.22850000  0.85538000  1.0
  O  O880  1  0.52642000  0.41429000  0.50904000  1.0
  O  O881  1  0.53406000  0.41722000  0.56548000  1.0
  O  O882  1  0.55847000  0.35041000  0.52778000  1.0
  O  O883  1  0.59379000  0.35540000  0.47799000  1.0
  O  O884  1  0.49820000  0.35659000  0.47402000  1.0
  O  O885  1  0.45455000  0.40176000  0.46364000  1.0
  O  O886  1  0.46837000  0.36763000  0.53829000  1.0
  O  O887  1  0.47098000  0.31186000  0.52799000  1.0
  O  O888  1  0.83649000  0.79131000  0.61468000  1.0
  O  O889  1  0.86833000  0.74244000  0.63085000  1.0
  O  O890  1  0.79782000  0.77593000  0.67831000  1.0
  O  O891  1  0.79209000  0.71934000  0.67348000  1.0
  O  O892  1  0.76191000  0.74818000  0.61886000  1.0
  O  O893  1  0.75501000  0.77536000  0.56931000  1.0
  O  O894  1  0.75116000  0.81483000  0.63181000  1.0
  O  O895  1  0.70524000  0.78646000  0.66638000  1.0
  O  O896  1  0.80583000  0.80648000  0.43473000  1.0
  O  O897  1  0.83163000  0.75987000  0.40902000  1.0
  O  O898  1  0.75442000  0.80261000  0.37590000  1.0
  O  O899  1  0.76921000  0.85834000  0.37963000  1.0
  O  O900  1  0.71408000  0.82241000  0.43664000  1.0
  O  O901  1  0.73391000  0.79853000  0.48579000  1.0
  O  O902  1  0.74083000  0.75703000  0.42807000  1.0
  O  O903  1  0.68050000  0.75865000  0.39379000  1.0
  O  O904  1  0.31162000  0.26356000  0.10561000  1.0
  O  O905  1  0.30363000  0.31973000  0.10109000  1.0
  O  O906  1  0.26162000  0.26786000  0.16494000  1.0
  O  O907  1  0.29436000  0.21723000  0.17290000  1.0
  O  O908  1  0.23595000  0.22170000  0.11611000  1.0
  O  O909  1  0.23982000  0.22994000  0.06026000  1.0
  O  O910  1  0.22302000  0.28972000  0.10490000  1.0
  O  O911  1  0.16741000  0.27355000  0.13975000  1.0
  O  O912  1  0.68696000  0.75610000  0.16335000  1.0
  O  O913  1  0.67222000  0.74980000  0.21884000  1.0
  O  O914  1  0.75712000  0.75986000  0.21099000  1.0
  O  O915  1  0.75142000  0.81611000  0.20320000  1.0
  O  O916  1  0.77314000  0.77975000  0.14485000  1.0
  O  O917  1  0.74473000  0.75557000  0.09816000  1.0
  O  O918  1  0.76121000  0.71262000  0.15864000  1.0
  O  O919  1  0.82946000  0.72445000  0.17956000  1.0
  O  O920  1  0.20198000  0.27817000  0.39464000  1.0
  O  O921  1  0.18752000  0.22246000  0.39730000  1.0
  O  O922  1  0.25703000  0.26204000  0.33956000  1.0
  O  O923  1  0.26099000  0.20596000  0.34962000  1.0
  O  O924  1  0.28270000  0.24223000  0.40524000  1.0
  O  O925  1  0.26591000  0.27212000  0.45164000  1.0
  O  O926  1  0.28469000  0.30876000  0.38748000  1.0
  O  O927  1  0.34488000  0.28677000  0.36148000  1.0
  O  O928  1  0.48091000  0.92463000  0.56321000  1.0
  O  O929  1  0.49101000  0.92514000  0.50671000  1.0
  O  O930  1  0.44571000  0.85919000  0.57136000  1.0
  O  O931  1  0.42055000  0.87351000  0.51973000  1.0
  O  O932  1  0.52520000  0.87723000  0.60262000  1.0
  O  O933  1  0.57244000  0.91778000  0.58520000  1.0
  O  O934  1  0.52577000  0.86831000  0.53463000  1.0
  O  O935  1  0.51598000  0.81535000  0.55350000  1.0
  O  O936  1  0.01833000  0.06844000  0.99486000  1.0
  O  O937  1  0.01230000  0.06551000  0.05141000  1.0
  O  O938  1  0.97068000  0.12591000  0.01377000  1.0
  O  O939  1  0.93344000  0.11609000  0.96526000  1.0
  O  O940  1  0.03043000  0.12871000  0.95886000  1.0
  O  O941  1  0.09449000  0.09898000  0.95694000  1.0
  O  O942  1  0.06359000  0.12389000  0.02276000  1.0
  O  O943  1  0.03601000  0.17638000  0.01748000  1.0
  O  O944  1  0.46260000  0.09557000  0.53624000  1.0
  O  O945  1  0.47175000  0.10206000  0.48000000  1.0
  O  O946  1  0.51094000  0.15178000  0.55758000  1.0
  O  O947  1  0.53956000  0.14774000  0.50533000  1.0
  O  O948  1  0.42049000  0.14553000  0.57434000  1.0
  O  O949  1  0.37195000  0.11286000  0.54586000  1.0
  O  O950  1  0.44083000  0.16002000  0.50970000  1.0
  O  O951  1  0.45519000  0.20785000  0.53815000  1.0
  O  O952  1  0.98927000  0.89569000  0.01662000  1.0
  O  O953  1  0.97706000  0.89105000  0.07272000  1.0
  O  O954  1  0.02917000  0.83258000  0.00394000  1.0
  O  O955  1  0.05902000  0.85172000  0.05266000  1.0
  O  O956  1  0.94984000  0.85045000  0.97230000  1.0
  O  O957  1  0.89036000  0.87589000  0.99620000  1.0
  O  O958  1  0.94753000  0.83614000  0.03978000  1.0
  O  O959  1  0.94761000  0.78702000  0.01132000  1.0
