# generated using pymatgen
data_ZnH50C42N5O7
_symmetry_space_group_name_H-M   'P 1'
_cell_length_a   33.52550000
_cell_length_b   35.95570000
_cell_length_c   37.04880000
_cell_angle_alpha   88.00300000
_cell_angle_beta   87.85600000
_cell_angle_gamma   81.08400000
_symmetry_Int_Tables_number   1
_chemical_formula_structural   ZnH50C42N5O7
_chemical_formula_sum   'Zn8 H400 C336 N40 O56'
_cell_volume   44070.22099382
_cell_formula_units_Z   8
loop_
 _symmetry_equiv_pos_site_id
 _symmetry_equiv_pos_as_xyz
  1  'x, y, z'
loop_
 _atom_site_type_symbol
 _atom_site_label
 _atom_site_symmetry_multiplicity
 _atom_site_fract_x
 _atom_site_fract_y
 _atom_site_fract_z
 _atom_site_occupancy
  Zn  Zn0  1  0.08913000  0.94235000  0.48999000  1.0
  Zn  Zn1  1  0.02962000  0.98339000  0.42807000  1.0
  Zn  Zn2  1  0.49840000  0.99966000  0.00335000  1.0
  Zn  Zn3  1  0.56099000  0.97283000  0.93648000  1.0
  Zn  Zn4  1  0.57247000  0.48565000  0.48480000  1.0
  Zn  Zn5  1  0.55709000  0.41651000  0.43516000  1.0
  Zn  Zn6  1  0.03753000  0.41896000  0.98361000  1.0
  Zn  Zn7  1  0.04615000  0.50530000  0.95892000  1.0
  H  H8  1  0.38657000  0.82345000  0.91311000  1.0
  H  H9  1  0.38852000  0.82654000  0.79692000  1.0
  H  H10  1  0.48277000  0.86608000  0.85229000  1.0
  H  H11  1  0.45167000  0.85398000  0.79572000  1.0
  H  H12  1  0.31949000  0.82553000  0.90259000  1.0
  H  H13  1  0.31224000  0.85831000  0.86561000  1.0
  H  H14  1  0.27940000  0.73747000  0.92235000  1.0
  H  H15  1  0.28170000  0.78258000  0.94166000  1.0
  H  H16  1  0.13708000  0.80413000  0.88033000  1.0
  H  H17  1  0.31898000  0.76177000  0.90854000  1.0
  H  H18  1  0.13619000  0.82196000  0.83639000  1.0
  H  H19  1  0.14642000  0.77157000  0.84326000  1.0
  H  H20  1  0.25815000  0.87456000  0.79536000  1.0
  H  H21  1  0.30751000  0.85327000  0.80771000  1.0
  H  H22  1  0.28202000  0.83019000  0.77683000  1.0
  H  H23  1  0.09684000  0.88269000  0.79448000  1.0
  H  H24  1  0.16812000  0.76191000  0.91465000  1.0
  H  H25  1  0.17330000  0.81245000  0.78564000  1.0
  H  H26  1  0.21667000  0.82948000  0.76818000  1.0
  H  H27  1  0.20737000  0.88726000  0.73316000  1.0
  H  H28  1  0.21089000  0.76133000  0.93856000  1.0
  H  H29  1  0.13735000  0.70872000  0.90805000  1.0
  H  H30  1  0.09235000  0.92935000  0.68668000  1.0
  H  H31  1  0.13692000  0.66526000  0.80117000  1.0
  H  H32  1  0.20917000  0.67053000  0.79258000  1.0
  H  H33  1  0.24562000  0.69565000  0.84075000  1.0
  H  H34  1  0.05772000  0.91197000  0.74286000  1.0
  H  H35  1  0.42721000  0.24142000  0.34614000  1.0
  H  H36  1  0.30451000  0.27964000  0.38196000  1.0
  H  H37  1  0.39727000  0.34497000  0.40288000  1.0
  H  H38  1  0.32574000  0.33607000  0.40690000  1.0
  H  H39  1  0.40375000  0.18580000  0.35146000  1.0
  H  H40  1  0.37571000  0.19187000  0.39322000  1.0
  H  H41  1  0.37600000  0.14935000  0.26499000  1.0
  H  H42  1  0.41765000  0.14367000  0.29558000  1.0
  H  H43  1  0.29272000  0.05586000  0.30622000  1.0
  H  H44  1  0.38171000  0.18671000  0.29253000  1.0
  H  H45  1  0.31979000  0.03183000  0.34377000  1.0
  H  H46  1  0.26917000  0.05737000  0.34910000  1.0
  H  H47  1  0.32245000  0.16167000  0.43575000  1.0
  H  H48  1  0.30744000  0.20155000  0.40544000  1.0
  H  H49  1  0.27278000  0.17083000  0.41614000  1.0
  H  H50  1  0.31859000  0.98650000  0.40104000  1.0
  H  H51  1  0.36268000  0.05082000  0.29247000  1.0
  H  H52  1  0.25333000  0.09397000  0.39629000  1.0
  H  H53  1  0.28182000  0.11018000  0.43075000  1.0
  H  H54  1  0.23703000  0.07114000  0.45783000  1.0
  H  H55  1  0.39120000  0.08515000  0.27561000  1.0
  H  H56  1  0.39534000  0.04282000  0.22720000  1.0
  H  H57  1  0.21552000  0.95621000  0.45973000  1.0
  H  H58  1  0.31862000  0.98161000  0.16952000  1.0
  H  H59  1  0.25877000  0.02454000  0.19136000  1.0
  H  H60  1  0.26617000  0.07605000  0.23174000  1.0
  H  H61  1  0.27720000  0.93854000  0.42214000  1.0
  H  H62  1  0.67178000  0.56184000  0.27457000  1.0
  H  H63  1  0.56900000  0.64025000  0.24068000  1.0
  H  H64  1  0.55373000  0.55955000  0.32517000  1.0
  H  H65  1  0.52564000  0.61207000  0.28559000  1.0
  H  H66  1  0.64283000  0.57944000  0.18947000  1.0
  H  H67  1  0.60695000  0.62141000  0.18796000  1.0
  H  H68  1  0.75187000  0.56349000  0.16669000  1.0
  H  H69  1  0.70536000  0.54807000  0.15445000  1.0
  H  H70  1  0.77113000  0.66854000  0.08743000  1.0
  H  H71  1  0.71110000  0.56757000  0.19813000  1.0
  H  H72  1  0.72831000  0.68064000  0.05883000  1.0
  H  H73  1  0.73943000  0.71120000  0.09407000  1.0
  H  H74  1  0.59019000  0.68685000  0.16290000  1.0
  H  H75  1  0.61724000  0.68352000  0.20451000  1.0
  H  H76  1  0.62129000  0.72141000  0.17426000  1.0
  H  H77  1  0.56169000  0.71735000  0.05809000  1.0
  H  H78  1  0.75834000  0.60897000  0.07490000  1.0
  H  H79  1  0.67427000  0.72721000  0.08434000  1.0
  H  H80  1  0.66270000  0.74326000  0.12972000  1.0
  H  H81  1  0.63412000  0.79481000  0.09877000  1.0
  H  H82  1  0.75347000  0.57017000  0.10409000  1.0
  H  H83  1  0.81800000  0.54924000  0.07134000  1.0
  H  H84  1  0.54959000  0.82958000  0.01465000  1.0
  H  H85  1  0.91579000  0.60292000  0.02589000  1.0
  H  H86  1  0.90227000  0.65111000  0.07183000  1.0
  H  H87  1  0.84605000  0.65033000  0.11662000  1.0
  H  H88  1  0.53000000  0.76717000  0.01640000  1.0
  H  H89  1  0.97457000  0.37648000  0.76514000  1.0
  H  H90  1  0.91566000  0.28381000  0.80570000  1.0
  H  H91  1  0.95974000  0.35349000  0.87973000  1.0
  H  H92  1  0.92605000  0.30042000  0.86691000  1.0
  H  H93  1  0.93185000  0.26638000  0.74821000  1.0
  H  H94  1  0.88642000  0.29976000  0.75072000  1.0
  H  H95  1  0.99683000  0.23423000  0.66979000  1.0
  H  H96  1  0.96871000  0.21632000  0.70767000  1.0
  H  H97  1  0.88923000  0.23776000  0.57841000  1.0
  H  H98  1  0.98788000  0.26069000  0.70916000  1.0
  H  H99  1  0.84217000  0.26487000  0.58946000  1.0
  H  H100  1  0.88323000  0.28675000  0.56914000  1.0
  H  H101  1  0.82440000  0.34767000  0.70088000  1.0
  H  H102  1  0.86830000  0.35497000  0.72404000  1.0
  H  H103  1  0.86085000  0.37536000  0.68071000  1.0
  H  H104  1  0.75166000  0.26693000  0.62830000  1.0
  H  H105  1  0.91703000  0.19855000  0.61783000  1.0
  H  H106  1  0.83712000  0.33144000  0.59573000  1.0
  H  H107  1  0.83061000  0.36138000  0.63213000  1.0
  H  H108  1  0.77417000  0.37642000  0.59002000  1.0
  H  H109  1  0.95770000  0.19457000  0.64646000  1.0
  H  H110  1  0.97328000  0.14613000  0.60049000  1.0
  H  H111  1  0.68536000  0.32193000  0.54016000  1.0
  H  H112  1  0.97426000  0.13738000  0.48448000  1.0
  H  H113  1  0.97265000  0.20538000  0.47758000  1.0
  H  H114  1  0.96969000  0.24491000  0.53091000  1.0
  H  H115  1  0.69946000  0.26832000  0.58292000  1.0
  H  H116  1  0.70171000  0.08946000  0.04040000  1.0
  H  H117  1  0.68473000  0.09985000  0.15586000  1.0
  H  H118  1  0.58244000  0.11777000  0.08887000  1.0
  H  H119  1  0.61185000  0.11500000  0.14899000  1.0
  H  H120  1  0.74273000  0.13445000  0.12861000  1.0
  H  H121  1  0.75247000  0.09082000  0.15354000  1.0
  H  H122  1  0.80081000  0.17314000  0.05362000  1.0
  H  H123  1  0.77814000  0.18603000  0.09744000  1.0
  H  H124  1  0.93799000  0.11344000  0.07360000  1.0
  H  H125  1  0.76060000  0.15114000  0.07037000  1.0
  H  H126  1  0.94660000  0.11290000  0.12166000  1.0
  H  H127  1  0.94605000  0.07007000  0.09709000  1.0
  H  H128  1  0.80641000  0.04363000  0.17920000  1.0
  H  H129  1  0.78815000  0.03179000  0.13636000  1.0
  H  H130  1  0.83736000  0.01246000  0.14839000  1.0
  H  H131  1  0.83057000  0.10129000  0.20524000  1.0
  H  H132  1  0.90403000  0.17051000  0.08841000  1.0
  H  H133  1  0.93255000  0.05339000  0.15385000  1.0
  H  H134  1  0.90477000  0.01874000  0.14114000  1.0
  H  H135  1  0.95397000  0.05105000  0.22039000  1.0
  H  H136  1  0.85391000  0.19319000  0.08201000  1.0
  H  H137  1  0.90319000  0.22808000  0.05723000  1.0
  H  H138  1  0.90529000  0.15527000  0.27121000  1.0
  H  H139  1  0.97956000  0.23406000  0.96220000  1.0
  H  H140  1  0.95935000  0.17594000  0.94056000  1.0
  H  H141  1  0.91253000  0.14239000  0.97713000  1.0
  H  H142  1  0.83988000  0.15382000  0.24356000  1.0
  H  H143  1  0.71640000  0.64713000  0.59222000  1.0
  H  H144  1  0.67566000  0.69832000  0.69290000  1.0
  H  H145  1  0.61898000  0.60914000  0.65591000  1.0
  H  H146  1  0.62502000  0.65552000  0.70095000  1.0
  H  H147  1  0.73685000  0.70651000  0.58287000  1.0
  H  H148  1  0.69000000  0.73074000  0.59856000  1.0
  H  H149  1  0.83601000  0.73576000  0.57633000  1.0
  H  H150  1  0.79529000  0.72954000  0.54718000  1.0
  H  H151  1  0.79127000  0.87828000  0.58925000  1.0
  H  H152  1  0.80231000  0.70538000  0.59094000  1.0
  H  H153  1  0.75500000  0.88990000  0.62358000  1.0
  H  H154  1  0.80477000  0.86679000  0.63543000  1.0
  H  H155  1  0.66214000  0.80703000  0.66223000  1.0
  H  H156  1  0.66288000  0.76328000  0.64299000  1.0
  H  H157  1  0.69163000  0.76582000  0.68276000  1.0
  H  H158  1  0.63134000  0.92715000  0.64840000  1.0
  H  H159  1  0.80952000  0.83696000  0.54957000  1.0
  H  H160  1  0.74800000  0.85863000  0.67953000  1.0
  H  H161  1  0.71264000  0.82853000  0.69391000  1.0
  H  H162  1  0.71411000  0.87878000  0.73042000  1.0
  H  H163  1  0.82844000  0.78962000  0.54377000  1.0
  H  H164  1  0.87732000  0.82972000  0.51626000  1.0
  H  H165  1  0.62540000  0.97495000  0.75295000  1.0
  H  H166  1  0.92914000  0.92707000  0.54483000  1.0
  H  H167  1  0.91577000  0.91310000  0.60851000  1.0
  H  H168  1  0.88198000  0.85905000  0.62740000  1.0
  H  H169  1  0.60047000  0.97494000  0.69127000  1.0
  H  H170  1  0.44420000  0.16775000  0.83833000  1.0
  H  H171  1  0.44067000  0.25911000  0.91092000  1.0
  H  H172  1  0.42037000  0.15095000  0.95253000  1.0
  H  H173  1  0.42682000  0.21698000  0.96235000  1.0
  H  H174  1  0.43134000  0.22243000  0.79501000  1.0
  H  H175  1  0.39062000  0.23459000  0.82628000  1.0
  H  H176  1  0.49527000  0.28133000  0.74284000  1.0
  H  H177  1  0.46161000  0.24754000  0.73621000  1.0
  H  H178  1  0.41834000  0.40520000  0.74322000  1.0
  H  H179  1  0.48731000  0.24941000  0.77818000  1.0
  H  H180  1  0.36615000  0.40234000  0.73460000  1.0
  H  H181  1  0.38194000  0.41685000  0.77772000  1.0
  H  H182  1  0.33301000  0.28406000  0.84259000  1.0
  H  H183  1  0.37808000  0.28252000  0.86835000  1.0
  H  H184  1  0.34477000  0.32490000  0.86473000  1.0
  H  H185  1  0.24465000  0.38058000  0.76406000  1.0
  H  H186  1  0.42305000  0.35825000  0.70063000  1.0
  H  H187  1  0.32405000  0.39540000  0.78941000  1.0
  H  H188  1  0.33631000  0.38304000  0.83562000  1.0
  H  H189  1  0.27330000  0.37402000  0.87632000  1.0
  H  H190  1  0.45258000  0.31325000  0.70010000  1.0
  H  H191  1  0.47010000  0.35668000  0.65016000  1.0
  H  H192  1  0.16484000  0.44419000  0.83974000  1.0
  H  H193  1  0.50688000  0.46588000  0.63434000  1.0
  H  H194  1  0.52433000  0.46512000  0.69814000  1.0
  H  H195  1  0.51213000  0.41231000  0.73920000  1.0
  H  H196  1  0.18208000  0.42449000  0.77785000  1.0
  H  H197  1  0.12744000  0.53412000  0.17564000  1.0
  H  H198  1  0.20177000  0.61539000  0.13474000  1.0
  H  H199  1  0.13738000  0.56124000  0.06145000  1.0
  H  H200  1  0.18286000  0.60548000  0.07385000  1.0
  H  H201  1  0.22706000  0.60244000  0.18983000  1.0
  H  H202  1  0.18097000  0.63508000  0.19332000  1.0
  H  H203  1  0.27892000  0.53635000  0.25757000  1.0
  H  H204  1  0.28877000  0.57287000  0.22500000  1.0
  H  H205  1  0.23881000  0.59699000  0.36987000  1.0
  H  H206  1  0.24803000  0.54582000  0.22014000  1.0
  H  H207  1  0.24259000  0.64631000  0.36209000  1.0
  H  H208  1  0.19490000  0.63031000  0.37356000  1.0
  H  H209  1  0.12387000  0.63242000  0.22908000  1.0
  H  H210  1  0.10848000  0.65058000  0.27145000  1.0
  H  H211  1  0.13413000  0.67884000  0.23920000  1.0
  H  H212  1  0.13882000  0.67829000  0.40047000  1.0
  H  H213  1  0.29613000  0.60000000  0.33136000  1.0
  H  H214  1  0.13700000  0.65754000  0.34228000  1.0
  H  H215  1  0.13457000  0.69074000  0.30464000  1.0
  H  H216  1  0.16827000  0.76928000  0.33120000  1.0
  H  H217  1  0.31048000  0.57712000  0.29038000  1.0
  H  H218  1  0.36401000  0.54846000  0.32316000  1.0
  H  H219  1  0.09249000  0.79135000  0.42755000  1.0
  H  H220  1  0.38883000  0.49927000  0.42935000  1.0
  H  H221  1  0.31783000  0.49234000  0.43836000  1.0
  H  H222  1  0.26877000  0.51368000  0.39123000  1.0
  H  H223  1  0.09850000  0.72376000  0.44055000  1.0
  H  H224  1  0.96880000  0.95743000  0.37765000  1.0
  H  H225  1  0.93234000  0.00345000  0.32702000  1.0
  H  H226  1  0.04058000  0.07039000  0.37204000  1.0
  H  H227  1  0.99378000  0.09925000  0.38620000  1.0
  H  H228  1  0.01995000  0.06652000  0.41770000  1.0
  H  H229  1  0.17641000  0.84701000  0.56713000  1.0
  H  H230  1  0.12964000  0.86121000  0.51014000  1.0
  H  H231  1  0.11236000  0.97879000  0.58670000  1.0
  H  H232  1  0.11764000  0.99184000  0.53948000  1.0
  H  H233  1  0.16111000  0.98520000  0.56671000  1.0
  H  H234  1  0.65160000  0.97370000  0.91802000  1.0
  H  H235  1  0.68780000  0.93875000  0.86146000  1.0
  H  H236  1  0.55247000  0.89627000  0.87419000  1.0
  H  H237  1  0.52788000  0.94484000  0.87133000  1.0
  H  H238  1  0.55052000  0.92253000  0.83155000  1.0
  H  H239  1  0.40569000  0.07787000  0.09114000  1.0
  H  H240  1  0.45603000  0.07594000  0.03359000  1.0
  H  H241  1  0.48225000  0.94164000  0.05876000  1.0
  H  H242  1  0.42903000  0.94313000  0.05122000  1.0
  H  H243  1  0.44753000  0.94190000  0.09657000  1.0
  H  H244  1  0.58099000  0.33021000  0.43974000  1.0
  H  H245  1  0.55905000  0.28596000  0.39047000  1.0
  H  H246  1  0.52549000  0.43210000  0.35921000  1.0
  H  H247  1  0.50504000  0.40357000  0.32829000  1.0
  H  H248  1  0.47774000  0.41584000  0.37020000  1.0
  H  H249  1  0.59024000  0.61258000  0.52940000  1.0
  H  H250  1  0.57588000  0.57141000  0.47425000  1.0
  H  H251  1  0.59368000  0.46533000  0.55848000  1.0
  H  H252  1  0.56087000  0.49381000  0.58993000  1.0
  H  H253  1  0.61518000  0.48963000  0.59247000  1.0
  H  H254  1  0.00186000  0.58290000  0.98038000  1.0
  H  H255  1  0.02607000  0.64632000  0.95566000  1.0
  H  H256  1  0.10066000  0.52153000  0.89483000  1.0
  H  H257  1  0.11877000  0.56358000  0.87853000  1.0
  H  H258  1  0.13693000  0.54110000  0.92058000  1.0
  H  H259  1  0.05810000  0.27778000  0.99351000  1.0
  H  H260  1  0.07149000  0.33951000  0.95671000  1.0
  H  H261  1  0.98970000  0.40924000  0.04817000  1.0
  H  H262  1  0.00582000  0.37319000  0.08164000  1.0
  H  H263  1  0.95980000  0.37247000  0.05765000  1.0
  H  H264  1  0.20753000  0.90873000  0.67254000  1.0
  H  H265  1  0.17127000  0.95111000  0.66999000  1.0
  H  H266  1  0.15539000  0.87827000  0.64142000  1.0
  H  H267  1  0.19381000  0.94030000  0.60609000  1.0
  H  H268  1  0.21232000  0.89042000  0.60785000  1.0
  H  H269  1  0.12957000  0.92254000  0.63398000  1.0
  H  H270  1  0.38988000  0.95595000  0.17518000  1.0
  H  H271  1  0.41934000  0.97657000  0.20611000  1.0
  H  H272  1  0.42563000  0.02693000  0.16100000  1.0
  H  H273  1  0.38457000  0.97889000  0.11428000  1.0
  H  H274  1  0.36845000  0.02776000  0.12466000  1.0
  H  H275  1  0.44643000  0.98325000  0.14803000  1.0
  H  H276  1  0.66367000  0.53277000  0.33736000  1.0
  H  H277  1  0.64471000  0.49978000  0.31022000  1.0
  H  H278  1  0.59872000  0.53845000  0.37293000  1.0
  H  H279  1  0.64656000  0.46142000  0.36626000  1.0
  H  H280  1  0.65709000  0.49887000  0.39444000  1.0
  H  H281  1  0.58529000  0.50296000  0.34817000  1.0
  H  H282  1  0.97271000  0.42846000  0.81777000  1.0
  H  H283  1  0.02045000  0.39904000  0.81303000  1.0
  H  H284  1  0.97192000  0.41466000  0.88202000  1.0
  H  H285  1  0.05215000  0.43413000  0.85676000  1.0
  H  H286  1  0.00571000  0.46648000  0.85742000  1.0
  H  H287  1  0.01681000  0.38421000  0.87816000  1.0
  H  H288  1  0.48549000  0.83319000  0.92199000  1.0
  H  H289  1  0.43732000  0.84388000  0.94550000  1.0
  H  H290  1  0.48404000  0.89767000  0.90541000  1.0
  H  H291  1  0.45461000  0.89570000  0.98262000  1.0
  H  H292  1  0.50398000  0.87299000  0.96748000  1.0
  H  H293  1  0.43598000  0.90996000  0.92258000  1.0
  H  H294  1  0.19168000  0.04273000  0.50673000  1.0
  H  H295  1  0.17320000  0.00068000  0.49627000  1.0
  H  H296  1  0.12711000  0.05780000  0.48177000  1.0
  H  H297  1  0.12286000  0.05264000  0.41343000  1.0
  H  H298  1  0.16267000  0.01413000  0.41759000  1.0
  H  H299  1  0.16188000  0.07397000  0.45412000  1.0
  H  H300  1  0.86976000  0.55577000  0.99086000  1.0
  H  H301  1  0.85629000  0.52020000  0.02242000  1.0
  H  H302  1  0.93795000  0.54329000  0.01033000  1.0
  H  H303  1  0.91141000  0.46880000  0.99986000  1.0
  H  H304  1  0.91306000  0.50406000  0.96398000  1.0
  H  H305  1  0.92640000  0.51125000  0.04260000  1.0
  H  H306  1  0.73759000  0.40917000  0.54309000  1.0
  H  H307  1  0.73781000  0.37580000  0.50915000  1.0
  H  H308  1  0.65964000  0.39126000  0.54917000  1.0
  H  H309  1  0.68742000  0.39889000  0.47170000  1.0
  H  H310  1  0.66434000  0.36111000  0.49170000  1.0
  H  H311  1  0.67524000  0.43031000  0.53086000  1.0
  H  H312  1  0.07254000  0.69280000  0.83370000  1.0
  H  H313  1  0.07282000  0.70632000  0.87971000  1.0
  H  H314  1  0.04804000  0.64790000  0.87179000  1.0
  H  H315  1  0.12687000  0.62300000  0.90550000  1.0
  H  H316  1  0.09235000  0.66082000  0.92533000  1.0
  H  H317  1  0.09245000  0.62759000  0.85279000  1.0
  H  H318  1  0.64027000  0.85193000  0.05005000  1.0
  H  H319  1  0.60439000  0.86486000  0.08600000  1.0
  H  H320  1  0.58938000  0.87521000  0.00683000  1.0
  H  H321  1  0.59373000  0.93068000  0.06430000  1.0
  H  H322  1  0.63075000  0.91845000  0.02770000  1.0
  H  H323  1  0.55395000  0.88678000  0.04105000  1.0
  H  H324  1  0.94258000  0.08940000  0.54642000  1.0
  H  H325  1  0.98386000  0.08510000  0.57641000  1.0
  H  H326  1  0.98787000  0.07636000  0.49611000  1.0
  H  H327  1  0.01631000  0.02400000  0.55758000  1.0
  H  H328  1  0.97074000  0.02364000  0.53313000  1.0
  H  H329  1  0.02944000  0.07803000  0.52126000  1.0
  H  H330  1  0.48059000  0.27069000  0.36899000  1.0
  H  H331  1  0.46883000  0.31041000  0.39813000  1.0
  H  H332  1  0.45644000  0.31590000  0.31854000  1.0
  H  H333  1  0.52716000  0.29572000  0.32808000  1.0
  H  H334  1  0.51592000  0.34305000  0.31051000  1.0
  H  H335  1  0.45435000  0.35176000  0.34764000  1.0
  H  H336  1  0.97521000  0.13078000  0.27847000  1.0
  H  H337  1  0.99872000  0.09972000  0.24440000  1.0
  H  H338  1  0.98192000  0.04644000  0.28070000  1.0
  H  H339  1  0.95538000  0.10351000  0.33729000  1.0
  H  H340  1  0.92275000  0.07676000  0.31504000  1.0
  H  H341  1  0.01184000  0.07214000  0.30182000  1.0
  H  H342  1  0.67661000  0.95348000  0.79623000  1.0
  H  H343  1  0.72088000  0.92294000  0.78106000  1.0
  H  H344  1  0.67962000  0.87002000  0.79022000  1.0
  H  H345  1  0.61298000  0.91293000  0.79775000  1.0
  H  H346  1  0.62430000  0.87425000  0.82845000  1.0
  H  H347  1  0.69576000  0.88805000  0.82683000  1.0
  H  H348  1  0.44856000  0.43529000  0.59610000  1.0
  H  H349  1  0.46337000  0.38524000  0.59277000  1.0
  H  H350  1  0.51444000  0.44549000  0.57634000  1.0
  H  H351  1  0.48774000  0.38769000  0.53011000  1.0
  H  H352  1  0.46426000  0.43619000  0.53191000  1.0
  H  H353  1  0.53241000  0.39824000  0.57644000  1.0
  H  H354  1  0.07110000  0.52583000  0.12757000  1.0
  H  H355  1  0.11288000  0.48861000  0.12504000  1.0
  H  H356  1  0.07809000  0.53667000  0.06260000  1.0
  H  H357  1  0.07474000  0.45646000  0.08573000  1.0
  H  H358  1  0.03343000  0.49483000  0.08425000  1.0
  H  H359  1  0.11842000  0.50069000  0.06007000  1.0
  H  H360  1  0.64552000  0.10732000  0.00197000  1.0
  H  H361  1  0.59839000  0.13055000  0.02147000  1.0
  H  H362  1  0.62548000  0.04726000  0.02024000  1.0
  H  H363  1  0.56145000  0.09841000  0.98075000  1.0
  H  H364  1  0.60818000  0.07410000  0.96101000  1.0
  H  H365  1  0.58094000  0.06935000  0.03885000  1.0
  H  H366  1  0.88170000  0.89882000  0.47416000  1.0
  H  H367  1  0.91933000  0.85853000  0.47115000  1.0
  H  H368  1  0.93985000  0.91562000  0.44680000  1.0
  H  H369  1  0.98565000  0.88383000  0.51174000  1.0
  H  H370  1  0.99184000  0.86770000  0.46637000  1.0
  H  H371  1  0.93379000  0.93681000  0.48683000  1.0
  H  H372  1  0.22056000  0.44810000  0.90560000  1.0
  H  H373  1  0.22423000  0.39985000  0.92071000  1.0
  H  H374  1  0.15092000  0.45267000  0.89819000  1.0
  H  H375  1  0.16813000  0.40483000  0.96500000  1.0
  H  H376  1  0.17375000  0.45426000  0.96016000  1.0
  H  H377  1  0.15126000  0.40502000  0.90321000  1.0
  H  H378  1  0.42806000  0.55934000  0.37606000  1.0
  H  H379  1  0.43250000  0.52987000  0.33869000  1.0
  H  H380  1  0.44508000  0.47672000  0.39249000  1.0
  H  H381  1  0.48096000  0.54433000  0.41361000  1.0
  H  H382  1  0.44678000  0.52098000  0.44065000  1.0
  H  H383  1  0.48094000  0.49572000  0.36832000  1.0
  H  H384  1  0.93261000  0.28441000  0.04370000  1.0
  H  H385  1  0.96119000  0.28886000  0.00187000  1.0
  H  H386  1  0.98873000  0.24142000  0.06687000  1.0
  H  H387  1  0.98608000  0.30750000  0.07690000  1.0
  H  H388  1  0.03621000  0.28191000  0.07458000  1.0
  H  H389  1  0.01634000  0.24379000  0.02790000  1.0
  H  H390  1  0.43228000  0.10722000  0.85951000  1.0
  H  H391  1  0.39933000  0.10817000  0.89922000  1.0
  H  H392  1  0.48967000  0.09343000  0.89910000  1.0
  H  H393  1  0.42662000  0.04317000  0.90916000  1.0
  H  H394  1  0.46662000  0.04096000  0.87450000  1.0
  H  H395  1  0.45779000  0.09351000  0.93614000  1.0
  H  H396  1  0.11174000  0.83396000  0.34366000  1.0
  H  H397  1  0.16021000  0.83281000  0.36231000  1.0
  H  H398  1  0.07965000  0.85045000  0.40096000  1.0
  H  H399  1  0.14605000  0.89602000  0.38619000  1.0
  H  H400  1  0.10047000  0.90018000  0.36069000  1.0
  H  H401  1  0.12527000  0.84566000  0.42177000  1.0
  H  H402  1  0.65350000  0.61000000  0.56670000  1.0
  H  H403  1  0.69841000  0.58402000  0.58320000  1.0
  H  H404  1  0.65856000  0.53988000  0.58802000  1.0
  H  H405  1  0.58575000  0.55473000  0.61667000  1.0
  H  H406  1  0.58954000  0.60143000  0.59980000  1.0
  H  H407  1  0.65060000  0.55569000  0.62984000  1.0
  C  C408  1  0.43594000  0.84706000  0.88700000  1.0
  C  C409  1  0.39999000  0.83139000  0.88752000  1.0
  C  C410  1  0.38220000  0.82455000  0.85500000  1.0
  C  C411  1  0.40134000  0.83254000  0.82207000  1.0
  C  C412  1  0.43707000  0.84800000  0.82134000  1.0
  C  C413  1  0.45446000  0.85506000  0.85357000  1.0
  C  C414  1  0.31538000  0.82765000  0.87294000  1.0
  C  C415  1  0.27707000  0.81294000  0.86335000  1.0
  C  C416  1  0.26078000  0.78676000  0.88690000  1.0
  C  C417  1  0.28641000  0.76621000  0.91658000  1.0
  C  C418  1  0.21993000  0.78145000  0.88374000  1.0
  C  C419  1  0.19724000  0.79953000  0.85463000  1.0
  C  C420  1  0.25691000  0.82565000  0.83115000  1.0
  C  C421  1  0.27728000  0.84716000  0.80151000  1.0
  C  C422  1  0.15206000  0.79884000  0.85346000  1.0
  C  C423  1  0.15463000  0.88175000  0.76675000  1.0
  C  C424  1  0.11245000  0.88936000  0.76954000  1.0
  C  C425  1  0.09033000  0.90600000  0.74044000  1.0
  C  C426  1  0.17465000  0.89167000  0.73466000  1.0
  C  C427  1  0.20139000  0.75570000  0.91117000  1.0
  C  C428  1  0.19365000  0.70511000  0.87717000  1.0
  C  C429  1  0.15278000  0.70094000  0.88259000  1.0
  C  C430  1  0.15260000  0.90821000  0.70511000  1.0
  C  C431  1  0.19338000  0.67917000  0.81763000  1.0
  C  C432  1  0.21391000  0.69345000  0.84483000  1.0
  C  C433  1  0.21732000  0.81762000  0.82619000  1.0
  C  C434  1  0.13186000  0.68704000  0.85513000  1.0
  C  C435  1  0.19530000  0.83141000  0.79192000  1.0
  C  C436  1  0.15251000  0.67608000  0.82264000  1.0
  C  C437  1  0.11019000  0.91565000  0.70848000  1.0
  C  C438  1  0.41735000  0.29330000  0.37479000  1.0
  C  C439  1  0.40514000  0.26146000  0.36026000  1.0
  C  C440  1  0.36447000  0.25573000  0.36368000  1.0
  C  C441  1  0.33599000  0.28323000  0.37996000  1.0
  C  C442  1  0.34794000  0.31516000  0.39405000  1.0
  C  C443  1  0.38845000  0.32014000  0.39168000  1.0
  C  C444  1  0.37255000  0.19097000  0.36338000  1.0
  C  C445  1  0.35038000  0.15875000  0.35456000  1.0
  C  C446  1  0.35968000  0.13950000  0.32181000  1.0
  C  C447  1  0.38535000  0.15554000  0.29227000  1.0
  C  C448  1  0.34551000  0.10490000  0.31696000  1.0
  C  C449  1  0.31754000  0.09237000  0.34255000  1.0
  C  C450  1  0.32166000  0.14678000  0.37970000  1.0
  C  C451  1  0.30553000  0.17139000  0.41110000  1.0
  C  C452  1  0.29898000  0.05744000  0.33524000  1.0
  C  C453  1  0.28026000  0.03257000  0.42648000  1.0
  C  C454  1  0.29158000  0.99478000  0.41759000  1.0
  C  C455  1  0.26826000  0.96756000  0.42954000  1.0
  C  C456  1  0.24557000  0.04249000  0.44914000  1.0
  C  C457  1  0.36002000  0.08129000  0.28438000  1.0
  C  C458  1  0.33095000  0.06237000  0.23354000  1.0
  C  C459  1  0.36538000  0.03852000  0.22009000  1.0
  C  C460  1  0.22177000  0.01520000  0.46087000  1.0
  C  C461  1  0.28850000  0.02832000  0.19951000  1.0
  C  C462  1  0.29276000  0.05744000  0.22232000  1.0
  C  C463  1  0.30792000  0.11184000  0.37524000  1.0
  C  C464  1  0.36118000  0.00910000  0.19726000  1.0
  C  C465  1  0.28458000  0.09408000  0.40563000  1.0
  C  C466  1  0.32247000  0.00406000  0.18721000  1.0
  C  C467  1  0.23344000  0.97766000  0.45094000  1.0
  C  C468  1  0.61542000  0.55667000  0.30328000  1.0
  C  C469  1  0.63975000  0.57243000  0.27701000  1.0
  C  C470  1  0.62321000  0.60171000  0.25360000  1.0
  C  C471  1  0.58200000  0.61652000  0.25743000  1.0
  C  C472  1  0.55745000  0.60084000  0.28308000  1.0
  C  C473  1  0.57381000  0.57094000  0.30574000  1.0
  C  C474  1  0.63905000  0.61033000  0.19364000  1.0
  C  C475  1  0.66625000  0.62924000  0.16740000  1.0
  C  C476  1  0.70257000  0.60861000  0.15311000  1.0
  C  C477  1  0.71843000  0.56975000  0.16874000  1.0
  C  C478  1  0.72380000  0.62426000  0.12398000  1.0
  C  C479  1  0.71226000  0.66258000  0.11309000  1.0
  C  C480  1  0.65443000  0.66738000  0.15617000  1.0
  C  C481  1  0.61878000  0.69102000  0.17526000  1.0
  C  C482  1  0.73906000  0.68159000  0.08672000  1.0
  C  C483  1  0.60122000  0.75167000  0.08055000  1.0
  C  C484  1  0.57105000  0.74486000  0.05771000  1.0
  C  C485  1  0.55303000  0.77302000  0.03415000  1.0
  C  C486  1  0.61209000  0.78820000  0.08037000  1.0
  C  C487  1  0.75845000  0.60000000  0.10411000  1.0
  C  C488  1  0.82719000  0.60066000  0.09624000  1.0
  C  C489  1  0.83633000  0.57154000  0.07125000  1.0
  C  C490  1  0.59406000  0.81688000  0.05673000  1.0
  C  C491  1  0.88392000  0.62887000  0.07169000  1.0
  C  C492  1  0.85213000  0.62839000  0.09699000  1.0
  C  C493  1  0.67550000  0.68309000  0.12687000  1.0
  C  C494  1  0.86863000  0.57162000  0.04587000  1.0
  C  C495  1  0.65831000  0.72149000  0.11030000  1.0
  C  C496  1  0.89173000  0.60112000  0.04586000  1.0
  C  C497  1  0.56445000  0.80872000  0.03341000  1.0
  C  C498  1  0.97016000  0.36927000  0.82322000  1.0
  C  C499  1  0.96395000  0.35986000  0.78742000  1.0
  C  C500  1  0.94420000  0.32942000  0.77965000  1.0
  C  C501  1  0.93072000  0.30785000  0.80921000  1.0
  C  C502  1  0.93662000  0.31706000  0.84468000  1.0
  C  C503  1  0.95601000  0.34747000  0.85179000  1.0
  C  C504  1  0.91670000  0.29377000  0.73689000  1.0
  C  C505  1  0.91075000  0.29093000  0.69644000  1.0
  C  C506  1  0.93455000  0.26181000  0.67678000  1.0
  C  C507  1  0.97399000  0.24198000  0.69181000  1.0
  C  C508  1  0.92101000  0.25082000  0.64346000  1.0
  C  C509  1  0.88829000  0.27396000  0.62639000  1.0
  C  C510  1  0.87916000  0.31502000  0.67892000  1.0
  C  C511  1  0.85700000  0.34981000  0.69732000  1.0
  C  C512  1  0.87526000  0.26511000  0.58908000  1.0
  C  C513  1  0.76777000  0.32076000  0.61163000  1.0
  C  C514  1  0.74550000  0.29107000  0.60995000  1.0
  C  C515  1  0.71589000  0.29183000  0.58435000  1.0
  C  C516  1  0.75822000  0.35260000  0.58824000  1.0
  C  C517  1  0.94110000  0.21423000  0.62646000  1.0
  C  C518  1  0.96982000  0.19871000  0.56947000  1.0
  C  C519  1  0.97280000  0.15909000  0.57366000  1.0
  C  C520  1  0.72841000  0.35352000  0.56222000  1.0
  C  C521  1  0.97271000  0.19242000  0.50439000  1.0
  C  C522  1  0.97095000  0.21475000  0.53460000  1.0
  C  C523  1  0.86838000  0.30696000  0.64354000  1.0
  C  C524  1  0.97483000  0.13622000  0.54323000  1.0
  C  C525  1  0.83255000  0.33131000  0.62564000  1.0
  C  C526  1  0.97406000  0.15354000  0.50855000  1.0
  C  C527  1  0.70774000  0.32255000  0.56027000  1.0
  C  C528  1  0.64003000  0.10379000  0.06033000  1.0
  C  C529  1  0.68204000  0.09539000  0.06405000  1.0
  C  C530  1  0.69921000  0.09497000  0.09801000  1.0
  C  C531  1  0.67321000  0.10148000  0.12891000  1.0
  C  C532  1  0.63146000  0.10980000  0.12526000  1.0
  C  C533  1  0.61490000  0.11120000  0.09118000  1.0
  C  C534  1  0.75748000  0.10453000  0.12678000  1.0
  C  C535  1  0.80255000  0.10286000  0.11867000  1.0
  C  C536  1  0.81713000  0.13212000  0.09786000  1.0
  C  C537  1  0.78763000  0.16234000  0.07902000  1.0
  C  C538  1  0.85929000  0.13323000  0.09496000  1.0
  C  C539  1  0.88684000  0.10259000  0.10895000  1.0
  C  C540  1  0.83025000  0.07248000  0.13283000  1.0
  C  C541  1  0.81479000  0.03837000  0.15035000  1.0
  C  C542  1  0.93179000  0.09984000  0.10011000  1.0
  C  C543  1  0.89210000  0.07324000  0.20931000  1.0
  C  C544  1  0.85975000  0.10195000  0.21650000  1.0
  C  C545  1  0.86489000  0.13160000  0.23834000  1.0
  C  C546  1  0.92934000  0.07382000  0.22522000  1.0
  C  C547  1  0.87494000  0.16679000  0.07646000  1.0
  C  C548  1  0.90507000  0.18163000  0.02039000  1.0
  C  C549  1  0.91560000  0.21587000  0.03217000  1.0
  C  C550  1  0.93448000  0.10327000  0.24773000  1.0
  C  C551  1  0.94725000  0.18703000  0.96616000  1.0
  C  C552  1  0.92076000  0.16809000  0.98696000  1.0
  C  C553  1  0.87225000  0.07435000  0.13112000  1.0
  C  C554  1  0.94269000  0.23472000  0.01143000  1.0
  C  C555  1  0.90127000  0.04664000  0.15376000  1.0
  C  C556  1  0.95844000  0.22003000  0.97840000  1.0
  C  C557  1  0.90204000  0.13232000  0.25393000  1.0
  C  C558  1  0.66769000  0.62419000  0.62028000  1.0
  C  C559  1  0.69593000  0.64927000  0.61565000  1.0
  C  C560  1  0.69841000  0.67668000  0.64139000  1.0
  C  C561  1  0.67332000  0.67806000  0.67245000  1.0
  C  C562  1  0.64475000  0.65381000  0.67708000  1.0
  C  C563  1  0.64161000  0.62724000  0.65116000  1.0
  C  C564  1  0.72225000  0.72287000  0.60592000  1.0
  C  C565  1  0.73965000  0.75896000  0.61087000  1.0
  C  C566  1  0.77635000  0.76484000  0.59279000  1.0
  C  C567  1  0.80376000  0.73220000  0.57556000  1.0
  C  C568  1  0.78721000  0.80150000  0.59096000  1.0
  C  C569  1  0.76720000  0.82937000  0.61443000  1.0
  C  C570  1  0.71962000  0.78687000  0.63433000  1.0
  C  C571  1  0.68228000  0.78018000  0.65673000  1.0
  C  C572  1  0.78049000  0.86790000  0.61569000  1.0
  C  C573  1  0.67499000  0.89896000  0.68538000  1.0
  C  C574  1  0.64285000  0.92667000  0.67536000  1.0
  C  C575  1  0.62527000  0.95381000  0.69958000  1.0
  C  C576  1  0.68938000  0.89929000  0.72096000  1.0
  C  C577  1  0.82095000  0.81062000  0.56516000  1.0
  C  C578  1  0.87571000  0.84160000  0.57315000  1.0
  C  C579  1  0.88540000  0.84820000  0.53634000  1.0
  C  C580  1  0.67162000  0.92648000  0.74541000  1.0
  C  C581  1  0.90720000  0.89505000  0.58833000  1.0
  C  C582  1  0.88808000  0.86448000  0.59896000  1.0
  C  C583  1  0.73673000  0.81999000  0.63918000  1.0
  C  C584  1  0.90478000  0.87887000  0.52525000  1.0
  C  C585  1  0.72228000  0.84552000  0.67041000  1.0
  C  C586  1  0.91493000  0.90271000  0.55176000  1.0
  C  C587  1  0.63950000  0.95377000  0.73446000  1.0
  C  C588  1  0.43262000  0.15424000  0.89470000  1.0
  C  C589  1  0.43998000  0.17847000  0.86539000  1.0
  C  C590  1  0.44179000  0.21678000  0.87100000  1.0
  C  C591  1  0.43826000  0.23000000  0.90622000  1.0
  C  C592  1  0.43045000  0.20624000  0.93531000  1.0
  C  C593  1  0.42708000  0.16871000  0.92961000  1.0
  C  C594  1  0.41978000  0.24302000  0.81602000  1.0
  C  C595  1  0.41192000  0.28302000  0.80002000  1.0
  C  C596  1  0.43561000  0.29362000  0.76990000  1.0
  C  C597  1  0.47169000  0.26647000  0.75588000  1.0
  C  C598  1  0.42515000  0.32946000  0.75263000  1.0
  C  C599  1  0.39505000  0.35657000  0.76867000  1.0
  C  C600  1  0.38035000  0.30971000  0.81488000  1.0
  C  C601  1  0.35765000  0.29976000  0.84930000  1.0
  C  C602  1  0.38989000  0.39734000  0.75509000  1.0
  C  C603  1  0.26339000  0.37511000  0.81925000  1.0
  C  C604  1  0.23721000  0.38875000  0.79164000  1.0
  C  C605  1  0.20185000  0.41351000  0.79942000  1.0
  C  C606  1  0.25309000  0.38519000  0.85507000  1.0
  C  C607  1  0.44537000  0.33874000  0.71667000  1.0
  C  C608  1  0.48868000  0.38143000  0.69818000  1.0
  C  C609  1  0.48146000  0.38052000  0.66085000  1.0
  C  C610  1  0.21730000  0.40986000  0.86329000  1.0
  C  C611  1  0.51230000  0.44154000  0.68772000  1.0
  C  C612  1  0.50538000  0.41162000  0.71091000  1.0
  C  C613  1  0.36975000  0.34546000  0.79733000  1.0
  C  C614  1  0.48770000  0.41090000  0.63745000  1.0
  C  C615  1  0.33124000  0.37135000  0.80900000  1.0
  C  C616  1  0.50282000  0.44161000  0.65137000  1.0
  C  C617  1  0.19209000  0.42441000  0.83488000  1.0
  C  C618  1  0.12860000  0.54406000  0.11783000  1.0
  C  C619  1  0.13949000  0.54977000  0.15336000  1.0
  C  C620  1  0.16561000  0.57534000  0.16087000  1.0
  C  C621  1  0.18127000  0.59546000  0.13134000  1.0
  C  C622  1  0.17068000  0.58995000  0.09609000  1.0
  C  C623  1  0.14462000  0.56455000  0.08922000  1.0
  C  C624  1  0.19689000  0.60758000  0.20386000  1.0
  C  C625  1  0.20221000  0.60963000  0.24446000  1.0
  C  C626  1  0.23700000  0.58930000  0.26075000  1.0
  C  C627  1  0.26481000  0.55969000  0.23967000  1.0
  C  C628  1  0.24607000  0.59703000  0.29659000  1.0
  C  C629  1  0.21735000  0.62091000  0.31782000  1.0
  C  C630  1  0.17359000  0.63358000  0.26575000  1.0
  C  C631  1  0.13301000  0.64997000  0.25041000  1.0
  C  C632  1  0.22384000  0.62404000  0.35791000  1.0
  C  C633  1  0.15479000  0.72069000  0.36188000  1.0
  C  C634  1  0.13585000  0.70803000  0.39347000  1.0
  C  C635  1  0.11334000  0.73379000  0.41651000  1.0
  C  C636  1  0.15256000  0.75957000  0.35495000  1.0
  C  C637  1  0.28660000  0.58005000  0.31216000  1.0
  C  C638  1  0.31232000  0.53382000  0.35434000  1.0
  C  C639  1  0.35371000  0.53669000  0.34847000  1.0
  C  C640  1  0.13032000  0.78590000  0.37826000  1.0
  C  C641  1  0.32787000  0.50477000  0.41328000  1.0
  C  C642  1  0.30013000  0.51695000  0.38662000  1.0
  C  C643  1  0.18284000  0.64190000  0.30149000  1.0
  C  C644  1  0.38209000  0.52417000  0.37513000  1.0
  C  C645  1  0.15549000  0.67234000  0.32261000  1.0
  C  C646  1  0.36846000  0.50866000  0.40787000  1.0
  C  C647  1  0.11026000  0.77243000  0.40897000  1.0
  C  C648  1  0.97120000  0.98690000  0.37321000  1.0
  C  C649  1  0.95224000  0.01072000  0.34711000  1.0
  C  C650  1  0.98969000  0.04097000  0.37730000  1.0
  C  C651  1  0.01239000  0.07107000  0.38884000  1.0
  C  C652  1  0.09242000  0.91893000  0.41524000  1.0
  C  C653  1  0.16160000  0.87435000  0.55771000  1.0
  C  C654  1  0.13731000  0.88171000  0.52833000  1.0
  C  C655  1  0.14039000  0.93386000  0.55347000  1.0
  C  C656  1  0.13231000  0.97481000  0.56211000  1.0
  C  C657  1  0.02483000  0.00625000  0.50266000  1.0
  C  C658  1  0.01255000  0.91973000  0.47408000  1.0
  C  C659  1  0.10699000  0.00521000  0.44383000  1.0
  C  C660  1  0.63714000  0.96003000  0.89771000  1.0
  C  C661  1  0.65584000  0.94166000  0.86825000  1.0
  C  C662  1  0.59276000  0.93697000  0.86921000  1.0
  C  C663  1  0.55361000  0.92434000  0.86110000  1.0
  C  C664  1  0.48534000  0.02347000  0.92816000  1.0
  C  C665  1  0.42215000  0.05293000  0.07884000  1.0
  C  C666  1  0.44819000  0.05192000  0.04912000  1.0
  C  C667  1  0.44524000  0.99522000  0.06740000  1.0
  C  C668  1  0.45131000  0.95301000  0.06856000  1.0
  C  C669  1  0.57394000  0.94855000  0.01134000  1.0
  C  C670  1  0.56420000  0.03918000  0.97835000  1.0
  C  C671  1  0.49613000  0.93234000  0.96293000  1.0
  C  C672  1  0.56377000  0.33930000  0.41606000  1.0
  C  C673  1  0.55252000  0.31640000  0.39054000  1.0
  C  C674  1  0.53000000  0.37409000  0.37621000  1.0
  C  C675  1  0.50820000  0.40836000  0.35733000  1.0
  C  C676  1  0.60591000  0.47329000  0.41154000  1.0
  C  C677  1  0.58862000  0.58272000  0.53029000  1.0
  C  C678  1  0.58116000  0.56143000  0.50180000  1.0
  C  C679  1  0.58895000  0.52544000  0.54909000  1.0
  C  C680  1  0.58971000  0.49151000  0.57388000  1.0
  C  C681  1  0.52281000  0.42848000  0.50754000  1.0
  C  C682  1  0.62512000  0.41366000  0.48327000  1.0
  C  C683  1  0.50653000  0.49069000  0.43503000  1.0
  C  C684  1  0.02613000  0.58522000  0.96076000  1.0
  C  C685  1  0.03871000  0.61801000  0.94806000  1.0
  C  C686  1  0.07657000  0.57097000  0.92398000  1.0
  C  C687  1  0.11032000  0.54797000  0.90327000  1.0
  C  C688  1  0.02876000  0.44876000  0.90944000  1.0
  C  C689  1  0.04543000  0.30641000  0.99993000  1.0
  C  C690  1  0.05256000  0.33840000  0.98089000  1.0
  C  C691  1  0.01459000  0.35492000  0.02712000  1.0
  C  C692  1  0.99111000  0.37897000  0.05526000  1.0
  C  C693  1  0.05583000  0.47546000  0.03270000  1.0
  C  C694  1  0.97049000  0.48074000  0.98321000  1.0
  C  C695  1  0.11313000  0.44351000  0.95910000  1.0
  C  C696  1  0.17464000  0.91980000  0.67116000  1.0
  C  C697  1  0.18457000  0.91187000  0.60651000  1.0
  C  C698  1  0.39806000  0.98317000  0.18360000  1.0
  C  C699  1  0.39528000  0.00568000  0.12053000  1.0
  C  C700  1  0.63534000  0.52466000  0.32739000  1.0
  C  C701  1  0.63273000  0.48627000  0.38202000  1.0
  C  C702  1  0.99156000  0.40288000  0.82930000  1.0
  C  C703  1  0.02198000  0.44052000  0.87068000  1.0
  C  C704  1  0.45599000  0.85232000  0.92198000  1.0
  C  C705  1  0.47895000  0.89631000  0.96140000  1.0
  C  C706  1  0.18391000  0.02604000  0.48398000  1.0
  C  C707  1  0.13720000  0.03068000  0.43282000  1.0
  C  C708  1  0.87673000  0.54165000  0.01761000  1.0
  C  C709  1  0.92611000  0.49321000  0.99021000  1.0
  C  C710  1  0.72182000  0.38595000  0.53467000  1.0
  C  C711  1  0.66545000  0.39174000  0.49313000  1.0
  C  C712  1  0.08722000  0.68524000  0.85997000  1.0
  C  C713  1  0.09453000  0.63593000  0.90786000  1.0
  C  C714  1  0.60747000  0.85537000  0.05759000  1.0
  C  C715  1  0.59824000  0.92077000  0.03608000  1.0
  C  C716  1  0.97443000  0.09416000  0.54853000  1.0
  C  C717  1  0.00193000  0.03075000  0.53103000  1.0
  C  C718  1  0.46117000  0.29852000  0.37239000  1.0
  C  C719  1  0.51201000  0.32461000  0.33466000  1.0
  C  C720  1  0.97425000  0.10335000  0.26570000  1.0
  C  C721  1  0.95410000  0.07650000  0.32403000  1.0
  C  C722  1  0.68733000  0.92617000  0.78317000  1.0
  C  C723  1  0.63384000  0.90150000  0.81949000  1.0
  C  C724  1  0.47444000  0.41197000  0.59877000  1.0
  C  C725  1  0.49321000  0.41675000  0.53545000  1.0
  C  C726  1  0.09980000  0.51606000  0.11220000  1.0
  C  C727  1  0.06312000  0.48346000  0.07133000  1.0
  C  C728  1  0.62186000  0.10505000  0.02354000  1.0
  C  C729  1  0.58475000  0.07282000  0.98295000  1.0
  C  C730  1  0.91138000  0.88589000  0.48489000  1.0
  C  C731  1  0.98297000  0.89310000  0.48289000  1.0
  C  C732  1  0.20803000  0.42159000  0.90204000  1.0
  C  C733  1  0.15728000  0.43201000  0.95059000  1.0
  C  C734  1  0.42579000  0.53010000  0.36837000  1.0
  C  C735  1  0.47114000  0.51646000  0.41943000  1.0
  C  C736  1  0.95633000  0.26954000  0.02521000  1.0
  C  C737  1  0.00918000  0.29195000  0.05835000  1.0
  C  C738  1  0.42967000  0.11331000  0.88886000  1.0
  C  C739  1  0.45812000  0.04829000  0.90302000  1.0
  C  C740  1  0.12880000  0.82766000  0.36894000  1.0
  C  C741  1  0.11362000  0.89246000  0.38761000  1.0
  C  C742  1  0.66666667  0.59526000  0.59142000  1.0
  C  C743  1  0.60175000  0.57110000  0.59634000  1.0
  N  N744  1  0.99496000  0.00569000  0.39189000  1.0
  N  N745  1  0.96406000  0.04463000  0.34955000  1.0
  N  N746  1  0.16344000  0.90717000  0.57345000  1.0
  N  N747  1  0.12384000  0.91895000  0.52574000  1.0
  N  N748  1  0.59774000  0.95678000  0.89853000  1.0
  N  N749  1  0.62791000  0.92687000  0.85031000  1.0
  N  N750  1  0.42012000  0.01726000  0.09008000  1.0
  N  N751  1  0.46245000  0.01579000  0.04183000  1.0
  N  N752  1  0.54949000  0.37542000  0.40727000  1.0
  N  N753  1  0.53091000  0.33825000  0.36571000  1.0
  N  N754  1  0.59345000  0.56002000  0.55997000  1.0
  N  N755  1  0.58120000  0.52558000  0.51358000  1.0
  N  N756  1  0.04998000  0.55572000  0.94593000  1.0
  N  N757  1  0.07065000  0.60902000  0.92521000  1.0
  N  N758  1  0.02118000  0.31681000  0.02886000  1.0
  N  N759  1  0.03343000  0.36884000  0.99796000  1.0
  N  N760  1  0.15810000  0.90687000  0.63833000  1.0
  N  N761  1  0.41903000  0.00077000  0.15348000  1.0
  N  N762  1  0.60949000  0.51444000  0.35807000  1.0
  N  N763  1  0.99950000  0.40865000  0.86753000  1.0
  N  N764  1  0.46315000  0.89146000  0.92556000  1.0
  N  N765  1  0.15144000  0.04937000  0.46378000  1.0
  N  N766  1  0.91921000  0.52316000  0.01698000  1.0
  N  N767  1  0.67856000  0.40098000  0.52899000  1.0
  N  N768  1  0.07938000  0.64735000  0.87160000  1.0
  N  N769  1  0.58475000  0.88390000  0.03360000  1.0
  N  N770  1  0.00015000  0.07117000  0.52169000  1.0
  N  N771  1  0.46856000  0.32443000  0.34201000  1.0
  N  N772  1  0.98262000  0.07228000  0.29270000  1.0
  N  N773  1  0.67601000  0.89435000  0.80550000  1.0
  N  N774  1  0.50695000  0.41873000  0.57256000  1.0
  N  N775  1  0.09134000  0.51083000  0.07402000  1.0
  N  N776  1  0.60323000  0.07116000  0.01851000  1.0
  N  N777  1  0.94140000  0.91064000  0.47480000  1.0
  N  N778  1  0.16439000  0.42788000  0.91137000  1.0
  N  N779  1  0.45628000  0.50191000  0.38650000  1.0
  N  N780  1  0.99416000  0.25894000  0.04461000  1.0
  N  N781  1  0.46111000  0.08816000  0.90847000  1.0
  N  N782  1  0.11031000  0.85297000  0.39759000  1.0
  N  N783  1  0.64557000  0.56335000  0.60268000  1.0
  O  O784  1  0.21526000  0.71728000  0.90433000  1.0
  O  O785  1  0.17595000  0.86872000  0.79701000  1.0
  O  O786  1  0.34858000  0.80653000  0.85453000  1.0
  O  O787  1  0.33333333  0.09213000  0.25584000  1.0
  O  O788  1  0.30565000  0.05780000  0.41430000  1.0
  O  O789  1  0.35112000  0.22501000  0.34918000  1.0
  O  O790  1  0.79510000  0.60223000  0.12119000  1.0
  O  O791  1  0.61676000  0.72241000  0.10404000  1.0
  O  O792  1  0.64853000  0.61761000  0.22934000  1.0
  O  O793  1  0.96841000  0.22265000  0.59835000  1.0
  O  O794  1  0.79651000  0.31832000  0.63810000  1.0
  O  O795  1  0.93992000  0.32255000  0.74303000  1.0
  O  O796  1  0.87848000  0.16092000  0.03887000  1.0
  O  O797  1  0.88602000  0.04274000  0.18963000  1.0
  O  O798  1  0.74100000  0.08557000  0.09946000  1.0
  O  O799  1  0.85595000  0.81206000  0.58509000  1.0
  O  O800  1  0.69021000  0.87313000  0.65904000  1.0
  O  O801  1  0.72701000  0.70068000  0.63823000  1.0
  O  O802  1  0.48144000  0.35313000  0.72305000  1.0
  O  O803  1  0.29842000  0.35081000  0.81110000  1.0
  O  O804  1  0.44898000  0.24160000  0.84292000  1.0
  O  O805  1  0.28332000  0.54443000  0.32850000  1.0
  O  O806  1  0.17908000  0.69581000  0.33951000  1.0
  O  O807  1  0.17474000  0.57820000  0.19718000  1.0
  O  O808  1  0.00417000  0.94567000  0.44848000  1.0
  O  O809  1  0.04604000  0.91601000  0.49206000  1.0
  O  O810  1  0.07359000  0.00837000  0.42585000  1.0
  O  O811  1  0.11562000  0.97946000  0.46949000  1.0
  O  O812  1  0.06285000  0.94505000  0.40483000  1.0
  O  O813  1  0.10499000  0.91596000  0.44855000  1.0
  O  O814  1  0.05430000  0.97997000  0.51290000  1.0
  O  O815  1  0.01269000  0.00979000  0.46921000  1.0
  O  O816  1  0.57745000  0.01577000  0.95261000  1.0
  O  O817  1  0.53293000  0.03488000  0.99963000  1.0
  O  O818  1  0.52734000  0.93680000  0.94163000  1.0
  O  O819  1  0.48219000  0.95629000  0.98802000  1.0
  O  O820  1  0.51905000  0.00428000  0.91517000  1.0
  O  O821  1  0.47496000  0.02293000  0.96270000  1.0
  O  O822  1  0.54025000  0.96788000  0.02413000  1.0
  O  O823  1  0.58457000  0.94906000  0.97688000  1.0
  O  O824  1  0.60377000  0.39922000  0.45988000  1.0
  O  O825  1  0.61490000  0.44815000  0.49445000  1.0
  O  O826  1  0.51561000  0.45568000  0.42452000  1.0
  O  O827  1  0.52774000  0.50475000  0.45880000  1.0
  O  O828  1  0.58944000  0.44309000  0.40650000  1.0
  O  O829  1  0.60068000  0.49192000  0.44171000  1.0
  O  O830  1  0.53866000  0.45909000  0.51228000  1.0
  O  O831  1  0.52866000  0.40973000  0.47757000  1.0
  O  O832  1  0.99245000  0.50596000  0.97102000  1.0
  O  O833  1  0.98579000  0.44522000  0.98878000  1.0
  O  O834  1  0.09757000  0.47905000  0.95416000  1.0
  O  O835  1  0.09142000  0.41770000  0.97043000  1.0
  O  O836  1  0.03558000  0.48273000  0.91680000  1.0
  O  O837  1  0.02906000  0.42176000  0.93440000  1.0
  O  O838  1  0.04955000  0.44146000  0.02515000  1.0
  O  O839  1  0.05442000  0.50274000  0.00803000  1.0
