# generated using pymatgen
data_CuH96C108(NO11)2
_symmetry_space_group_name_H-M   'P 1'
_cell_length_a   36.28810000
_cell_length_b   39.47990000
_cell_length_c   38.36900000
_cell_angle_alpha   95.76500000
_cell_angle_beta   92.41800000
_cell_angle_gamma   97.32200000
_symmetry_Int_Tables_number   1
_chemical_formula_structural   CuH96C108(NO11)2
_chemical_formula_sum   'Cu4 H384 C432 N8 O88'
_cell_volume   54161.08253572
_cell_formula_units_Z   4
loop_
 _symmetry_equiv_pos_site_id
 _symmetry_equiv_pos_as_xyz
  1  'x, y, z'
loop_
 _atom_site_type_symbol
 _atom_site_label
 _atom_site_symmetry_multiplicity
 _atom_site_fract_x
 _atom_site_fract_y
 _atom_site_fract_z
 _atom_site_occupancy
  Cu  Cu0  1  0.96907000  0.00827000  0.49094000  1.0
  Cu  Cu1  1  0.99472000  0.55576000  0.98254000  1.0
  Cu  Cu2  1  0.53409000  0.51469000  0.44957000  1.0
  Cu  Cu3  1  0.48279000  0.98297000  0.96647000  1.0
  H  H4  1  0.22837000  0.24363000  0.92208000  1.0
  H  H5  1  0.10314000  0.25566000  0.87237000  1.0
  H  H6  1  0.11084000  0.16796000  0.89130000  1.0
  H  H7  1  0.08243000  0.19701000  0.87838000  1.0
  H  H8  1  0.08120000  0.21674000  0.82052000  1.0
  H  H9  1  0.14542000  0.11875000  0.77716000  1.0
  H  H10  1  0.15094000  0.10269000  0.83529000  1.0
  H  H11  1  0.14036000  0.12725000  0.87259000  1.0
  H  H12  1  0.20612000  0.11631000  0.80293000  1.0
  H  H13  1  0.26136000  0.19411000  0.90641000  1.0
  H  H14  1  0.20410000  0.18596000  0.93484000  1.0
  H  H15  1  0.16361000  0.16319000  0.91585000  1.0
  H  H16  1  0.26115000  0.28901000  0.88932000  1.0
  H  H17  1  0.26243000  0.33463000  0.89676000  1.0
  H  H18  1  0.23027000  0.31148000  0.86342000  1.0
  H  H19  1  0.15935000  0.33761000  0.94044000  1.0
  H  H20  1  0.11695000  0.30781000  0.93664000  1.0
  H  H21  1  0.10004000  0.25260000  0.77363000  1.0
  H  H22  1  0.08530000  0.24759000  0.72811000  1.0
  H  H23  1  0.12759000  0.23204000  0.74066000  1.0
  H  H24  1  0.08485000  0.09941000  0.74164000  1.0
  H  H25  1  0.11436000  0.09822000  0.70575000  1.0
  H  H26  1  0.25654000  0.16185000  0.76585000  1.0
  H  H27  1  0.30083000  0.14798000  0.75797000  1.0
  H  H28  1  0.29863000  0.18227000  0.79174000  1.0
  H  H29  1  0.31792000  0.12253000  0.85896000  1.0
  H  H30  1  0.31764000  0.14424000  0.90297000  1.0
  H  H31  1  0.82041000  0.26462000  0.37472000  1.0
  H  H32  1  0.75938000  0.34441000  0.30710000  1.0
  H  H33  1  0.76326000  0.26155000  0.25638000  1.0
  H  H34  1  0.74525000  0.30008000  0.25941000  1.0
  H  H35  1  0.77903000  0.35370000  0.24839000  1.0
  H  H36  1  0.87286000  0.28979000  0.19123000  1.0
  H  H37  1  0.84395000  0.23819000  0.20928000  1.0
  H  H38  1  0.80569000  0.23488000  0.23461000  1.0
  H  H39  1  0.90729000  0.25782000  0.23298000  1.0
  H  H40  1  0.86600000  0.22755000  0.34863000  1.0
  H  H41  1  0.80279000  0.21935000  0.32709000  1.0
  H  H42  1  0.78790000  0.22632000  0.28578000  1.0
  H  H43  1  0.75183000  0.29558000  0.42419000  1.0
  H  H44  1  0.78578000  0.30703000  0.45994000  1.0
  H  H45  1  0.79119000  0.27123000  0.42903000  1.0
  H  H46  1  0.71900000  0.33916000  0.39257000  1.0
  H  H47  1  0.71466000  0.35463000  0.34978000  1.0
  H  H48  1  0.80226000  0.41145000  0.25161000  1.0
  H  H49  1  0.83141000  0.43881000  0.22677000  1.0
  H  H50  1  0.85257000  0.40987000  0.25168000  1.0
  H  H51  1  0.91839000  0.35943000  0.20346000  1.0
  H  H52  1  0.89518000  0.39632000  0.19678000  1.0
  H  H53  1  0.96495000  0.29612000  0.25861000  1.0
  H  H54  1  0.00715000  0.28356000  0.27587000  1.0
  H  H55  1  0.97387000  0.29614000  0.30605000  1.0
  H  H56  1  0.92663000  0.17706000  0.31529000  1.0
  H  H57  1  0.91194000  0.18440000  0.35967000  1.0
  H  H58  1  0.31516000  0.60743000  0.19020000  1.0
  H  H59  1  0.30975000  0.68489000  0.09695000  1.0
  H  H60  1  0.39844000  0.65000000  0.10239000  1.0
  H  H61  1  0.36895000  0.67118000  0.07835000  1.0
  H  H62  1  0.35872000  0.72978000  0.09314000  1.0
  H  H63  1  0.46735000  0.74631000  0.17835000  1.0
  H  H64  1  0.47606000  0.68759000  0.16481000  1.0
  H  H65  1  0.44469000  0.65722000  0.13962000  1.0
  H  H66  1  0.46668000  0.70949000  0.22460000  1.0
  H  H67  1  0.36993000  0.61008000  0.23033000  1.0
  H  H68  1  0.37414000  0.59284000  0.16950000  1.0
  H  H69  1  0.40065000  0.61589000  0.14179000  1.0
  H  H70  1  0.27380000  0.63617000  0.22901000  1.0
  H  H71  1  0.22479000  0.63764000  0.22433000  1.0
  H  H72  1  0.25563000  0.67252000  0.21113000  1.0
  H  H73  1  0.22954000  0.62662000  0.08820000  1.0
  H  H74  1  0.25179000  0.66497000  0.07124000  1.0
  H  H75  1  0.32716000  0.77597000  0.11973000  1.0
  H  H76  1  0.33937000  0.82159000  0.12343000  1.0
  H  H77  1  0.35206000  0.79914000  0.15942000  1.0
  H  H78  1  0.48883000  0.79715000  0.12833000  1.0
  H  H79  1  0.49943000  0.80127000  0.17508000  1.0
  H  H80  1  0.44646000  0.74615000  0.27346000  1.0
  H  H81  1  0.44779000  0.74223000  0.31953000  1.0
  H  H82  1  0.40566000  0.72612000  0.29403000  1.0
  H  H83  1  0.42699000  0.59794000  0.27995000  1.0
  H  H84  1  0.37827000  0.58910000  0.28808000  1.0
  H  H85  1  0.61598000  0.75210000  0.73960000  1.0
  H  H86  1  0.69785000  0.71962000  0.64536000  1.0
  H  H87  1  0.74219000  0.72079000  0.73391000  1.0
  H  H88  1  0.74191000  0.70562000  0.68999000  1.0
  H  H89  1  0.76478000  0.73860000  0.64676000  1.0
  H  H90  1  0.80187000  0.83967000  0.73380000  1.0
  H  H91  1  0.78626000  0.80372000  0.77913000  1.0
  H  H92  1  0.76125000  0.76319000  0.77211000  1.0
  H  H93  1  0.75843000  0.85651000  0.77644000  1.0
  H  H94  1  0.63972000  0.78833000  0.79992000  1.0
  H  H95  1  0.66155000  0.73689000  0.78270000  1.0
  H  H96  1  0.70717000  0.73396000  0.77433000  1.0
  H  H97  1  0.56525000  0.68963000  0.67722000  1.0
  H  H98  1  0.53018000  0.71759000  0.67710000  1.0
  H  H99  1  0.55836000  0.71805000  0.71657000  1.0
  H  H100  1  0.59901000  0.67579000  0.61881000  1.0
  H  H101  1  0.64873000  0.67548000  0.61882000  1.0
  H  H102  1  0.78778000  0.74525000  0.59351000  1.0
  H  H103  1  0.79563000  0.78227000  0.57034000  1.0
  H  H104  1  0.75676000  0.77870000  0.59738000  1.0
  H  H105  1  0.82166000  0.89673000  0.67250000  1.0
  H  H106  1  0.77915000  0.86903000  0.66552000  1.0
  H  H107  1  0.72525000  0.90593000  0.75547000  1.0
  H  H108  1  0.70816000  0.93846000  0.78393000  1.0
  H  H109  1  0.67551000  0.90366000  0.76334000  1.0
  H  H110  1  0.59872000  0.82593000  0.79845000  1.0
  H  H111  1  0.61131000  0.86868000  0.78591000  1.0
  H  H112  1  0.76195000  0.77300000  0.08766000  1.0
  H  H113  1  0.81765000  0.72300000  0.18730000  1.0
  H  H114  1  0.72056000  0.73314000  0.19841000  1.0
  H  H115  1  0.75946000  0.71642000  0.21319000  1.0
  H  H116  1  0.81342000  0.75088000  0.24464000  1.0
  H  H117  1  0.73740000  0.84541000  0.26786000  1.0
  H  H118  1  0.68634000  0.81259000  0.23307000  1.0
  H  H119  1  0.68905000  0.77462000  0.20705000  1.0
  H  H120  1  0.71263000  0.86857000  0.21886000  1.0
  H  H121  1  0.72168000  0.81875000  0.09640000  1.0
  H  H122  1  0.70155000  0.76257000  0.11247000  1.0
  H  H123  1  0.69536000  0.75311000  0.15463000  1.0
  H  H124  1  0.82427000  0.70158000  0.06237000  1.0
  H  H125  1  0.83247000  0.72894000  0.02826000  1.0
  H  H126  1  0.78667000  0.72263000  0.04412000  1.0
  H  H127  1  0.83621000  0.67528000  0.13978000  1.0
  H  H128  1  0.86941000  0.69886000  0.17316000  1.0
  H  H129  1  0.81552000  0.78499000  0.33878000  1.0
  H  H130  1  0.86352000  0.77923000  0.33655000  1.0
  H  H131  1  0.82981000  0.74988000  0.30956000  1.0
  H  H132  1  0.80614000  0.88428000  0.26731000  1.0
  H  H133  1  0.84753000  0.87435000  0.28963000  1.0
  H  H134  1  0.75620000  0.91935000  0.21977000  1.0
  H  H135  1  0.75896000  0.95565000  0.19518000  1.0
  H  H136  1  0.78091000  0.91959000  0.17905000  1.0
  H  H137  1  0.66636000  0.86749000  0.09354000  1.0
  H  H138  1  0.69783000  0.86151000  0.05884000  1.0
  H  H139  1  0.21624000  0.71253000  0.56055000  1.0
  H  H140  1  0.22741000  0.60616000  0.61590000  1.0
  H  H141  1  0.13384000  0.60835000  0.57970000  1.0
  H  H142  1  0.16484000  0.58496000  0.59882000  1.0
  H  H143  1  0.18521000  0.59356000  0.66037000  1.0
  H  H144  1  0.07730000  0.65583000  0.68415000  1.0
  H  H145  1  0.06132000  0.65134000  0.62244000  1.0
  H  H146  1  0.08905000  0.63687000  0.59008000  1.0
  H  H147  1  0.07052000  0.70805000  0.65246000  1.0
  H  H148  1  0.16443000  0.74392000  0.56902000  1.0
  H  H149  1  0.15402000  0.68745000  0.53806000  1.0
  H  H150  1  0.12920000  0.65275000  0.55339000  1.0
  H  H151  1  0.26530000  0.74876000  0.59967000  1.0
  H  H152  1  0.31470000  0.74935000  0.60016000  1.0
  H  H153  1  0.28936000  0.72537000  0.63065000  1.0
  H  H154  1  0.28466000  0.59952000  0.57238000  1.0
  H  H155  1  0.28602000  0.59432000  0.61900000  1.0
  H  H156  1  0.22238000  0.62070000  0.71446000  1.0
  H  H157  1  0.21601000  0.61267000  0.75903000  1.0
  H  H158  1  0.19786000  0.64886000  0.74363000  1.0
  H  H159  1  0.09790000  0.57949000  0.74088000  1.0
  H  H160  1  0.05793000  0.59862000  0.72660000  1.0
  H  H161  1  0.09336000  0.75455000  0.69914000  1.0
  H  H162  1  0.08960000  0.79946000  0.70153000  1.0
  H  H163  1  0.13179000  0.78519000  0.68696000  1.0
  H  H164  1  0.14197000  0.78776000  0.54967000  1.0
  H  H165  1  0.15011000  0.83014000  0.56939000  1.0
  H  H166  1  0.72951000  0.39322000  0.75318000  1.0
  H  H167  1  0.75843000  0.33916000  0.86019000  1.0
  H  H168  1  0.74722000  0.27776000  0.78101000  1.0
  H  H169  1  0.76294000  0.28625000  0.82462000  1.0
  H  H170  1  0.72324000  0.28677000  0.87286000  1.0
  H  H171  1  0.61570000  0.23628000  0.79246000  1.0
  H  H172  1  0.65536000  0.23581000  0.74437000  1.0
  H  H173  1  0.70072000  0.25594000  0.74649000  1.0
  H  H174  1  0.60129000  0.26639000  0.74360000  1.0
  H  H175  1  0.68169000  0.36720000  0.70934000  1.0
  H  H176  1  0.73561000  0.33951000  0.71804000  1.0
  H  H177  1  0.73551000  0.30083000  0.73474000  1.0
  H  H178  1  0.80681000  0.44351000  0.80721000  1.0
  H  H179  1  0.78346000  0.47909000  0.79786000  1.0
  H  H180  1  0.78035000  0.44287000  0.76532000  1.0
  H  H181  1  0.81920000  0.39087000  0.86599000  1.0
  H  H182  1  0.79193000  0.37923000  0.90229000  1.0
  H  H183  1  0.68867000  0.31171000  0.91929000  1.0
  H  H184  1  0.65706000  0.29262000  0.94853000  1.0
  H  H185  1  0.63830000  0.30551000  0.90882000  1.0
  H  H186  1  0.60879000  0.18718000  0.82413000  1.0
  H  H187  1  0.56820000  0.18796000  0.84749000  1.0
  H  H188  1  0.56691000  0.27571000  0.66980000  1.0
  H  H189  1  0.52200000  0.28454000  0.68239000  1.0
  H  H190  1  0.54680000  0.25925000  0.70886000  1.0
  H  H191  1  0.59599000  0.33414000  0.64689000  1.0
  H  H192  1  0.64260000  0.35740000  0.64923000  1.0
  H  H193  1  0.45916000  0.18598000  0.25714000  1.0
  H  H194  1  0.40639000  0.24188000  0.36147000  1.0
  H  H195  1  0.42879000  0.15654000  0.37470000  1.0
  H  H196  1  0.41403000  0.19410000  0.39267000  1.0
  H  H197  1  0.35178000  0.20865000  0.38294000  1.0
  H  H198  1  0.30939000  0.08623000  0.34282000  1.0
  H  H199  1  0.37174000  0.07403000  0.34609000  1.0
  H  H200  1  0.41037000  0.10469000  0.35457000  1.0
  H  H201  1  0.33809000  0.06108000  0.29043000  1.0
  H  H202  1  0.44319000  0.12440000  0.23585000  1.0
  H  H203  1  0.47381000  0.14100000  0.29210000  1.0
  H  H204  1  0.45468000  0.13353000  0.33107000  1.0
  H  H205  1  0.43022000  0.21498000  0.21298000  1.0
  H  H206  1  0.43415000  0.25905000  0.20474000  1.0
  H  H207  1  0.39802000  0.24330000  0.23155000  1.0
  H  H208  1  0.48359000  0.29590000  0.32403000  1.0
  H  H209  1  0.45668000  0.29231000  0.36261000  1.0
  H  H210  1  0.29862000  0.23091000  0.35486000  1.0
  H  H211  1  0.25102000  0.22772000  0.36604000  1.0
  H  H212  1  0.26358000  0.19746000  0.33217000  1.0
  H  H213  1  0.27316000  0.09644000  0.40723000  1.0
  H  H214  1  0.25068000  0.07023000  0.36899000  1.0
  H  H215  1  0.29045000  0.04421000  0.24832000  1.0
  H  H216  1  0.28484000  0.03884000  0.20151000  1.0
  H  H217  1  0.29911000  0.08107000  0.22285000  1.0
  H  H218  1  0.38268000  0.12632000  0.17951000  1.0
  H  H219  1  0.34848000  0.08825000  0.17133000  1.0
  H  H220  1  0.95953000  0.86943000  0.53251000  1.0
  H  H221  1  0.91246000  0.95919000  0.50880000  1.0
  H  H222  1  0.02824000  0.95825000  0.50368000  1.0
  H  H223  1  0.07790000  0.06851000  0.39951000  1.0
  H  H224  1  0.05308000  0.00629000  0.48363000  1.0
  H  H225  1  0.96781000  0.05222000  0.43610000  1.0
  H  H226  1  0.09684000  0.48938000  0.89399000  1.0
  H  H227  1  0.01546000  0.55822000  0.91173000  1.0
  H  H228  1  0.04607000  0.50150000  0.99323000  1.0
  H  H229  1  0.94239000  0.50447000  0.11119000  1.0
  H  H230  1  0.98656000  0.48408000  0.00980000  1.0
  H  H231  1  0.96379000  0.58390000  0.04313000  1.0
  H  H232  1  0.38945000  0.55447000  0.48141000  1.0
  H  H233  1  0.46266000  0.51102000  0.40950000  1.0
  H  H234  1  0.50089000  0.54062000  0.51476000  1.0
  H  H235  1  0.59188000  0.40672000  0.51939000  1.0
  H  H236  1  0.50667000  0.47213000  0.50709000  1.0
  H  H237  1  0.60080000  0.48243000  0.44629000  1.0
  H  H238  1  0.52362000  0.11687000  0.91841000  1.0
  H  H239  1  0.55454000  0.03230000  0.97092000  1.0
  H  H240  1  0.44343000  0.03059000  0.93322000  1.0
  H  H241  1  0.58569000  0.91882000  0.05052000  1.0
  H  H242  1  0.49020000  0.97183000  0.04152000  1.0
  H  H243  1  0.55429000  0.95615000  0.95348000  1.0
  H  H244  1  0.03041000  0.13980000  0.73456000  1.0
  H  H245  1  0.97518000  0.14116000  0.69557000  1.0
  H  H246  1  0.97197000  0.11592000  0.63477000  1.0
  H  H247  1  0.08184000  0.08678000  0.64981000  1.0
  H  H248  1  0.97545000  0.05365000  0.60736000  1.0
  H  H249  1  0.97575000  0.08948000  0.58087000  1.0
  H  H250  1  0.95420000  0.33378000  0.15687000  1.0
  H  H251  1  0.99051000  0.34286000  0.10511000  1.0
  H  H252  1  0.98351000  0.39101000  0.07143000  1.0
  H  H253  1  0.90237000  0.42400000  0.14214000  1.0
  H  H254  1  0.99409000  0.45451000  0.08476000  1.0
  H  H255  1  0.96882000  0.43677000  0.04364000  1.0
  H  H256  1  0.46740000  0.63826000  0.33259000  1.0
  H  H257  1  0.48634000  0.63552000  0.39463000  1.0
  H  H258  1  0.44631000  0.60061000  0.43163000  1.0
  H  H259  1  0.36709000  0.56978000  0.34413000  1.0
  H  H260  1  0.36829000  0.51285000  0.41899000  1.0
  H  H261  1  0.40197000  0.51885000  0.38715000  1.0
  H  H262  1  0.60128000  0.83167000  0.87314000  1.0
  H  H263  1  0.56201000  0.85328000  0.91882000  1.0
  H  H264  1  0.52394000  0.89818000  0.90875000  1.0
  H  H265  1  0.56334000  0.90139000  0.80426000  1.0
  H  H266  1  0.46551000  0.93953000  0.84786000  1.0
  H  H267  1  0.47259000  0.90443000  0.87111000  1.0
  H  H268  1  0.06390000  0.32079000  0.89330000  1.0
  H  H269  1  0.02493000  0.36652000  0.88521000  1.0
  H  H270  1  0.04873000  0.42697000  0.90459000  1.0
  H  H271  1  0.15275000  0.39695000  0.93996000  1.0
  H  H272  1  0.11510000  0.48007000  0.98106000  1.0
  H  H273  1  0.07719000  0.44731000  0.97412000  1.0
  H  H274  1  0.00458000  0.21583000  0.32446000  1.0
  H  H275  1  0.06365000  0.19707000  0.34338000  1.0
  H  H276  1  0.06423000  0.15130000  0.38276000  1.0
  H  H277  1  0.94510000  0.14262000  0.38532000  1.0
  H  H278  1  0.98088000  0.07506000  0.37714000  1.0
  H  H279  1  0.02893000  0.08905000  0.36853000  1.0
  H  H280  1  0.49802000  0.85874000  0.21046000  1.0
  H  H281  1  0.51339000  0.92132000  0.21038000  1.0
  H  H282  1  0.51687000  0.94742000  0.15538000  1.0
  H  H283  1  0.48917000  0.84721000  0.09744000  1.0
  H  H284  1  0.51757000  0.96411000  0.10000000  1.0
  H  H285  1  0.55727000  0.94010000  0.10316000  1.0
  H  H286  1  0.67352000  0.72385000  0.56911000  1.0
  H  H287  1  0.67361000  0.71840000  0.50466000  1.0
  H  H288  1  0.62695000  0.67798000  0.46891000  1.0
  H  H289  1  0.57750000  0.64651000  0.56282000  1.0
  H  H290  1  0.58221000  0.63555000  0.44276000  1.0
  H  H291  1  0.61255000  0.61158000  0.46767000  1.0
  H  H292  1  0.37003000  0.18751000  0.83413000  1.0
  H  H293  1  0.43832000  0.19666000  0.83451000  1.0
  H  H294  1  0.47607000  0.16806000  0.87485000  1.0
  H  H295  1  0.37629000  0.12117000  0.91652000  1.0
  H  H296  1  0.42298000  0.07650000  0.90530000  1.0
  H  H297  1  0.45918000  0.09165000  0.87706000  1.0
  H  H298  1  0.20978000  0.71824000  0.10851000  1.0
  H  H299  1  0.15060000  0.73757000  0.09092000  1.0
  H  H300  1  0.10311000  0.69911000  0.05383000  1.0
  H  H301  1  0.17348000  0.61891000  0.05169000  1.0
  H  H302  1  0.06791000  0.63912000  0.06409000  1.0
  H  H303  1  0.06197000  0.65561000  0.02155000  1.0
  H  H304  1  0.75651000  0.85062000  0.60573000  1.0
  H  H305  1  0.76552000  0.84693000  0.54235000  1.0
  H  H306  1  0.82625000  0.86350000  0.52030000  1.0
  H  H307  1  0.87239000  0.88995000  0.62680000  1.0
  H  H308  1  0.87203000  0.91008000  0.51782000  1.0
  H  H309  1  0.88982000  0.86867000  0.51126000  1.0
  H  H310  1  0.76268000  0.42662000  0.37428000  1.0
  H  H311  1  0.73959000  0.48015000  0.39630000  1.0
  H  H312  1  0.67996000  0.47862000  0.42499000  1.0
  H  H313  1  0.66612000  0.36826000  0.41148000  1.0
  H  H314  1  0.64560000  0.41223000  0.48618000  1.0
  H  H315  1  0.65865000  0.45641000  0.47795000  1.0
  H  H316  1  0.77218000  0.92894000  0.29177000  1.0
  H  H317  1  0.77043000  0.97906000  0.33505000  1.0
  H  H318  1  0.81372000  0.98995000  0.38672000  1.0
  H  H319  1  0.86333000  0.89950000  0.35236000  1.0
  H  H320  1  0.88732000  0.99966000  0.39123000  1.0
  H  H321  1  0.86025000  0.99593000  0.43008000  1.0
  H  H322  1  0.03833000  0.64726000  0.77288000  1.0
  H  H323  1  0.01785000  0.65398000  0.83338000  1.0
  H  H324  1  0.03794000  0.61725000  0.87716000  1.0
  H  H325  1  0.10005000  0.56614000  0.79986000  1.0
  H  H326  1  0.03246000  0.53550000  0.84989000  1.0
  H  H327  1  0.07637000  0.51850000  0.84597000  1.0
  H  H328  1  0.63543000  0.42810000  0.66962000  1.0
  H  H329  1  0.61761000  0.47400000  0.63608000  1.0
  H  H330  1  0.57473000  0.46097000  0.58469000  1.0
  H  H331  1  0.56365000  0.35324000  0.59979000  1.0
  H  H332  1  0.49705000  0.40882000  0.53122000  1.0
  H  H333  1  0.51537000  0.44026000  0.56481000  1.0
  H  H334  1  0.39140000  0.14544000  0.12337000  1.0
  H  H335  1  0.41037000  0.13549000  0.06280000  1.0
  H  H336  1  0.41998000  0.07817000  0.03767000  1.0
  H  H337  1  0.38922000  0.03755000  0.13416000  1.0
  H  H338  1  0.38565000  0.98356000  0.03352000  1.0
  H  H339  1  0.38235000  0.02578000  0.02387000  1.0
  H  H340  1  0.93301000  0.72406000  0.13556000  1.0
  H  H341  1  0.98452000  0.69727000  0.10939000  1.0
  H  H342  1  0.97598000  0.63577000  0.08759000  1.0
  H  H343  1  0.86277000  0.62644000  0.11814000  1.0
  H  H344  1  0.92026000  0.55879000  0.12629000  1.0
  H  H345  1  0.96142000  0.58749000  0.12114000  1.0
  H  H346  1  0.07397000  0.75608000  0.54696000  1.0
  H  H347  1  0.00960000  0.76371000  0.53017000  1.0
  H  H348  1  0.99044000  0.82151000  0.53333000  1.0
  H  H349  1  0.10065000  0.86576000  0.57257000  1.0
  H  H350  1  0.05776000  0.91003000  0.51898000  1.0
  H  H351  1  0.02842000  0.87217000  0.49942000  1.0
  H  H352  1  0.67107000  0.18382000  0.85906000  1.0
  H  H353  1  0.69830000  0.15286000  0.90432000  1.0
  H  H354  1  0.65897000  0.12739000  0.94850000  1.0
  H  H355  1  0.56424000  0.16644000  0.90395000  1.0
  H  H356  1  0.59764000  0.08266000  0.92669000  1.0
  H  H357  1  0.59822000  0.08649000  0.97350000  1.0
  H  H358  1  0.39594000  0.33349000  0.34907000  1.0
  H  H359  1  0.39383000  0.39562000  0.36026000  1.0
  H  H360  1  0.44953000  0.43654000  0.35981000  1.0
  H  H361  1  0.51344000  0.35303000  0.33424000  1.0
  H  H362  1  0.54556000  0.46717000  0.34060000  1.0
  H  H363  1  0.49710000  0.46305000  0.33580000  1.0
  H  H364  1  0.69265000  0.94238000  0.11946000  1.0
  H  H365  1  0.67321000  0.99489000  0.09932000  1.0
  H  H366  1  0.64881000  0.99513000  0.03829000  1.0
  H  H367  1  0.66625000  0.88958000  0.01577000  1.0
  H  H368  1  0.60019000  0.91682000  0.95415000  1.0
  H  H369  1  0.60776000  0.89483000  0.99132000  1.0
  H  H370  1  0.79312000  0.41936000  0.95497000  1.0
  H  H371  1  0.82528000  0.47093000  0.99035000  1.0
  H  H372  1  0.86823000  0.51220000  0.96445000  1.0
  H  H373  1  0.84721000  0.45130000  0.86372000  1.0
  H  H374  1  0.90975000  0.55645000  0.89304000  1.0
  H  H375  1  0.87932000  0.55157000  0.92684000  1.0
  H  H376  1  0.22798000  0.14827000  0.42627000  1.0
  H  H377  1  0.16942000  0.14920000  0.45630000  1.0
  H  H378  1  0.12294000  0.09813000  0.45195000  1.0
  H  H379  1  0.19345000  0.04251000  0.38618000  1.0
  H  H380  1  0.11055000  0.00148000  0.44831000  1.0
  H  H381  1  0.12405000  0.04253000  0.47015000  1.0
  H  H382  1  0.35308000  0.64059000  0.64689000  1.0
  H  H383  1  0.41914000  0.63235000  0.64923000  1.0
  H  H384  1  0.44332000  0.59350000  0.60485000  1.0
  H  H385  1  0.33414000  0.57015000  0.55251000  1.0
  H  H386  1  0.44457000  0.59366000  0.53723000  1.0
  H  H387  1  0.45862000  0.55778000  0.55841000  1.0
  C  C388  1  0.32614000  0.14732000  0.87574000  1.0
  C  C389  1  0.17524000  0.21590000  0.90183000  1.0
  C  C390  1  0.20102000  0.24564000  0.91070000  1.0
  C  C391  1  0.19180000  0.27832000  0.90581000  1.0
  C  C392  1  0.15574000  0.28172000  0.89341000  1.0
  C  C393  1  0.13044000  0.25238000  0.88297000  1.0
  C  C394  1  0.13952000  0.21930000  0.88693000  1.0
  C  C395  1  0.11043000  0.18899000  0.87460000  1.0
  C  C396  1  0.11348000  0.17773000  0.83602000  1.0
  C  C397  1  0.09585000  0.19554000  0.81156000  1.0
  C  C398  1  0.09621000  0.18607000  0.77540000  1.0
  C  C399  1  0.11235000  0.15715000  0.76322000  1.0
  C  C400  1  0.13144000  0.14007000  0.78716000  1.0
  C  C401  1  0.13208000  0.14972000  0.82354000  1.0
  C  C402  1  0.15330000  0.12977000  0.84740000  1.0
  C  C403  1  0.19405000  0.14451000  0.85160000  1.0
  C  C404  1  0.21747000  0.13366000  0.82557000  1.0
  C  C405  1  0.25574000  0.14449000  0.82841000  1.0
  C  C406  1  0.27164000  0.16501000  0.85861000  1.0
  C  C407  1  0.24863000  0.17728000  0.88391000  1.0
  C  C408  1  0.20984000  0.16734000  0.88100000  1.0
  C  C409  1  0.18700000  0.18182000  0.90964000  1.0
  C  C410  1  0.24361000  0.31023000  0.88991000  1.0
  C  C411  1  0.13427000  0.32739000  0.92299000  1.0
  C  C412  1  0.09897000  0.23511000  0.74886000  1.0
  C  C413  1  0.09402000  0.11330000  0.71884000  1.0
  C  C414  1  0.28338000  0.15760000  0.77885000  1.0
  C  C415  1  0.93409000  0.19182000  0.34161000  1.0
  C  C416  1  0.79819000  0.27257000  0.32347000  1.0
  C  C417  1  0.80626000  0.28139000  0.35971000  1.0
  C  C418  1  0.79558000  0.31129000  0.37715000  1.0
  C  C419  1  0.77789000  0.33357000  0.35808000  1.0
  C  C420  1  0.77201000  0.32630000  0.32161000  1.0
  C  C421  1  0.78113000  0.29573000  0.30397000  1.0
  C  C422  1  0.77135000  0.28903000  0.26493000  1.0
  C  C423  1  0.80177000  0.30565000  0.24386000  1.0
  C  C424  1  0.80049000  0.33996000  0.23730000  1.0
  C  C425  1  0.82488000  0.35607000  0.21462000  1.0
  C  C426  1  0.85050000  0.33739000  0.19765000  1.0
  C  C427  1  0.85295000  0.30373000  0.20487000  1.0
  C  C428  1  0.82902000  0.28740000  0.22786000  1.0
  C  C429  1  0.83285000  0.25051000  0.23329000  1.0
  C  C430  1  0.85952000  0.24845000  0.26423000  1.0
  C  C431  1  0.89776000  0.25187000  0.25831000  1.0
  C  C432  1  0.92404000  0.24634000  0.28422000  1.0
  C  C433  1  0.91214000  0.23571000  0.31603000  1.0
  C  C434  1  0.87446000  0.23429000  0.32320000  1.0
  C  C435  1  0.84774000  0.24051000  0.29770000  1.0
  C  C436  1  0.80758000  0.23821000  0.30751000  1.0
  C  C437  1  0.78207000  0.29717000  0.43174000  1.0
  C  C438  1  0.72879000  0.36020000  0.37648000  1.0
  C  C439  1  0.82706000  0.41273000  0.23552000  1.0
  C  C440  1  0.90227000  0.37165000  0.18383000  1.0
  C  C441  1  0.97690000  0.28255000  0.27961000  1.0
  C  C442  1  0.40435000  0.60667000  0.29615000  1.0
  C  C443  1  0.34700000  0.63394000  0.15234000  1.0
  C  C444  1  0.31456000  0.62453000  0.16987000  1.0
  C  C445  1  0.28096000  0.63656000  0.16132000  1.0
  C  C446  1  0.27884000  0.65688000  0.13371000  1.0
  C  C447  1  0.31126000  0.66757000  0.11695000  1.0
  C  C448  1  0.34539000  0.65620000  0.12557000  1.0
  C  C449  1  0.37875000  0.66891000  0.10579000  1.0
  C  C450  1  0.39679000  0.70383000  0.12240000  1.0
  C  C451  1  0.38206000  0.73285000  0.11222000  1.0
  C  C452  1  0.39734000  0.76614000  0.12586000  1.0
  C  C453  1  0.42926000  0.77105000  0.14836000  1.0
  C  C454  1  0.44368000  0.74232000  0.15961000  1.0
  C  C455  1  0.42805000  0.70862000  0.14680000  1.0
  C  C456  1  0.44567000  0.67914000  0.15990000  1.0
  C  C457  1  0.42963000  0.66917000  0.19383000  1.0
  C  C458  1  0.44497000  0.68808000  0.22528000  1.0
  C  C459  1  0.43352000  0.67924000  0.25797000  1.0
  C  C460  1  0.40795000  0.64995000  0.25977000  1.0
  C  C461  1  0.39113000  0.63170000  0.22863000  1.0
  C  C462  1  0.40168000  0.64076000  0.19552000  1.0
  C  C463  1  0.38203000  0.61967000  0.16334000  1.0
  C  C464  1  0.25152000  0.64414000  0.21201000  1.0
  C  C465  1  0.23254000  0.65528000  0.09092000  1.0
  C  C466  1  0.34901000  0.79739000  0.13022000  1.0
  C  C467  1  0.48238000  0.81044000  0.15406000  1.0
  C  C468  1  0.43662000  0.72918000  0.29359000  1.0
  C  C469  1  0.61069000  0.85270000  0.80827000  1.0
  C  C470  1  0.67123000  0.74058000  0.72846000  1.0
  C  C471  1  0.63397000  0.74401000  0.71942000  1.0
  C  C472  1  0.61949000  0.73733000  0.68456000  1.0
  C  C473  1  0.64264000  0.72807000  0.65800000  1.0
  C  C474  1  0.68009000  0.72578000  0.66644000  1.0
  C  C475  1  0.69476000  0.73130000  0.70138000  1.0
  C  C476  1  0.73553000  0.72799000  0.70766000  1.0
  C  C477  1  0.75943000  0.76029000  0.69955000  1.0
  C  C478  1  0.77184000  0.76120000  0.66534000  1.0
  C  C479  1  0.79432000  0.79020000  0.65549000  1.0
  C  C480  1  0.80435000  0.81854000  0.68062000  1.0
  C  C481  1  0.79250000  0.81781000  0.71475000  1.0
  C  C482  1  0.77046000  0.78890000  0.72490000  1.0
  C  C483  1  0.76202000  0.78892000  0.76322000  1.0
  C  C484  1  0.72762000  0.80548000  0.77196000  1.0
  C  C485  1  0.73202000  0.84137000  0.77984000  1.0
  C  C486  1  0.70363000  0.85808000  0.79448000  1.0
  C  C487  1  0.67037000  0.83900000  0.80222000  1.0
  C  C488  1  0.66501000  0.80327000  0.79312000  1.0
  C  C489  1  0.69289000  0.78624000  0.77736000  1.0
  C  C490  1  0.68418000  0.74793000  0.76686000  1.0
  C  C491  1  0.55872000  0.71552000  0.68744000  1.0
  C  C492  1  0.62539000  0.68906000  0.61003000  1.0
  C  C493  1  0.78607000  0.77327000  0.59530000  1.0
  C  C494  1  0.80925000  0.87118000  0.65951000  1.0
  C  C495  1  0.70438000  0.91051000  0.77532000  1.0
  C  C496  1  0.69168000  0.87946000  0.08144000  1.0
  C  C497  1  0.75331000  0.75804000  0.13974000  1.0
  C  C498  1  0.77352000  0.76172000  0.10956000  1.0
  C  C499  1  0.80821000  0.75013000  0.10654000  1.0
  C  C500  1  0.82408000  0.73519000  0.13410000  1.0
  C  C501  1  0.80501000  0.73313000  0.16525000  1.0
  C  C502  1  0.76960000  0.74382000  0.16832000  1.0
  C  C503  1  0.75093000  0.73961000  0.20249000  1.0
  C  C504  1  0.76277000  0.77049000  0.22915000  1.0
  C  C505  1  0.79645000  0.77138000  0.24910000  1.0
  C  C506  1  0.80851000  0.79828000  0.27534000  1.0
  C  C507  1  0.78746000  0.82539000  0.28117000  1.0
  C  C508  1  0.75371000  0.82462000  0.26204000  1.0
  C  C509  1  0.74097000  0.79764000  0.23582000  1.0
  C  C510  1  0.70508000  0.79995000  0.21519000  1.0
  C  C511  1  0.71263000  0.82135000  0.18503000  1.0
  C  C512  1  0.71549000  0.85725000  0.19240000  1.0
  C  C513  1  0.72103000  0.87902000  0.16590000  1.0
  C  C514  1  0.72103000  0.86489000  0.13104000  1.0
  C  C515  1  0.71988000  0.82921000  0.12338000  1.0
  C  C516  1  0.71579000  0.80705000  0.14997000  1.0
  C  C517  1  0.71467000  0.76887000  0.13949000  1.0
  C  C518  1  0.81688000  0.72546000  0.05217000  1.0
  C  C519  1  0.86244000  0.69369000  0.14446000  1.0
  C  C520  1  0.83692000  0.77722000  0.32067000  1.0
  C  C521  1  0.81838000  0.87944000  0.29333000  1.0
  C  C522  1  0.75621000  0.92720000  0.19271000  1.0
  C  C523  1  0.13182000  0.80550000  0.57036000  1.0
  C  C524  1  0.18585000  0.66666667  0.57716000  1.0
  C  C525  1  0.21819000  0.68934000  0.57299000  1.0
  C  C526  1  0.25348000  0.68214000  0.58377000  1.0
  C  C527  1  0.25734000  0.65115000  0.59739000  1.0
  C  C528  1  0.22499000  0.62915000  0.60336000  1.0
  C  C529  1  0.18928000  0.63635000  0.59322000  1.0
  C  C530  1  0.15617000  0.61110000  0.60047000  1.0
  C  C531  1  0.14319000  0.61981000  0.63688000  1.0
  C  C532  1  0.16195000  0.60775000  0.66504000  1.0
  C  C533  1  0.15070000  0.61304000  0.69937000  1.0
  C  C534  1  0.11893000  0.62891000  0.70575000  1.0
  C  C535  1  0.10096000  0.64248000  0.67837000  1.0
  C  C536  1  0.11247000  0.63810000  0.64372000  1.0
  C  C537  1  0.09090000  0.65287000  0.61543000  1.0
  C  C538  1  0.10588000  0.69011000  0.61254000  1.0
  C  C539  1  0.09105000  0.71547000  0.63400000  1.0
  C  C540  1  0.10145000  0.75053000  0.63141000  1.0
  C  C541  1  0.12614000  0.76097000  0.60635000  1.0
  C  C542  1  0.14309000  0.73593000  0.58643000  1.0
  C  C543  1  0.13241000  0.70057000  0.58821000  1.0
  C  C544  1  0.14910000  0.67557000  0.56285000  1.0
  C  C545  1  0.28817000  0.73293000  0.60342000  1.0
  C  C546  1  0.29800000  0.60999000  0.59869000  1.0
  C  C547  1  0.20263000  0.62185000  0.73587000  1.0
  C  C548  1  0.08315000  0.60260000  0.74495000  1.0
  C  C549  1  0.10097000  0.77824000  0.68613000  1.0
  C  C550  1  0.61331000  0.35907000  0.65629000  1.0
  C  C551  1  0.73428000  0.34499000  0.77415000  1.0
  C  C552  1  0.73635000  0.38097000  0.77619000  1.0
  C  C553  1  0.74763000  0.40174000  0.80751000  1.0
  C  C554  1  0.75638000  0.38679000  0.83778000  1.0
  C  C555  1  0.75288000  0.35076000  0.83648000  1.0
  C  C556  1  0.74248000  0.32955000  0.80496000  1.0
  C  C557  1  0.74033000  0.29109000  0.80598000  1.0
  C  C558  1  0.70318000  0.27636000  0.81845000  1.0
  C  C559  1  0.69983000  0.27633000  0.85487000  1.0
  C  C560  1  0.66686000  0.26220000  0.86864000  1.0
  C  C561  1  0.63728000  0.24618000  0.84591000  1.0
  C  C562  1  0.63954000  0.24738000  0.80963000  1.0
  C  C563  1  0.67236000  0.26168000  0.79535000  1.0
  C  C564  1  0.67312000  0.25979000  0.75575000  1.0
  C  C565  1  0.65802000  0.29012000  0.74171000  1.0
  C  C566  1  0.61919000  0.28804000  0.73574000  1.0
  C  C567  1  0.60316000  0.31327000  0.71918000  1.0
  C  C568  1  0.62616000  0.34155000  0.70945000  1.0
  C  C569  1  0.66460000  0.34480000  0.71674000  1.0
  C  C570  1  0.68113000  0.31925000  0.73232000  1.0
  C  C571  1  0.72301000  0.32478000  0.73882000  1.0
  C  C572  1  0.78135000  0.45068000  0.79408000  1.0
  C  C573  1  0.79919000  0.39992000  0.88512000  1.0
  C  C574  1  0.66214000  0.29435000  0.92042000  1.0
  C  C575  1  0.59877000  0.19578000  0.85025000  1.0
  C  C576  1  0.55013000  0.28132000  0.69291000  1.0
  C  C577  1  0.37853000  0.09817000  0.17074000  1.0
  C  C578  1  0.43807000  0.17831000  0.30803000  1.0
  C  C579  1  0.44696000  0.19761000  0.27990000  1.0
  C  C580  1  0.44169000  0.23229000  0.28119000  1.0
  C  C581  1  0.42893000  0.24848000  0.31158000  1.0
  C  C582  1  0.41773000  0.22913000  0.33883000  1.0
  C  C583  1  0.42225000  0.19415000  0.33770000  1.0
  C  C584  1  0.41021000  0.17537000  0.36869000  1.0
  C  C585  1  0.36958000  0.16024000  0.36390000  1.0
  C  C586  1  0.34298000  0.18192000  0.37358000  1.0
  C  C587  1  0.30500000  0.16944000  0.37252000  1.0
  C  C588  1  0.29320000  0.13448000  0.36343000  1.0
  C  C589  1  0.31910000  0.11291000  0.35169000  1.0
  C  C590  1  0.35732000  0.12518000  0.35204000  1.0
  C  C591  1  0.38336000  0.09997000  0.33961000  1.0
  C  C592  1  0.38693000  0.09866000  0.30029000  1.0
  C  C593  1  0.36030000  0.07611000  0.27860000  1.0
  C  C594  1  0.36316000  0.07119000  0.24204000  1.0
  C  C595  1  0.39355000  0.08866000  0.22699000  1.0
  C  C596  1  0.41977000  0.11156000  0.24813000  1.0
  C  C597  1  0.41702000  0.11702000  0.28467000  1.0
  C  C598  1  0.44724000  0.14180000  0.30545000  1.0
  C  C599  1  0.42737000  0.24134000  0.22492000  1.0
  C  C600  1  0.45686000  0.30078000  0.33574000  1.0
  C  C601  1  0.27337000  0.21242000  0.35782000  1.0
  C  C602  1  0.25084000  0.09487000  0.38588000  1.0
  C  C603  1  0.30199000  0.05339000  0.22406000  1.0
  C  C604  1  0.91648000  0.98596000  0.43506000  1.0
  C  C605  1  0.99827000  0.91176000  0.51909000  1.0
  C  C606  1  0.96285000  0.89533000  0.52511000  1.0
  C  C607  1  0.93149000  0.91213000  0.52133000  1.0
  C  C608  1  0.93624000  0.94552000  0.51158000  1.0
  C  C609  1  0.00138000  0.94525000  0.50878000  1.0
  C  C610  1  0.99484000  0.04478000  0.55672000  1.0
  C  C611  1  0.02137000  0.06290000  0.41464000  1.0
  C  C612  1  0.05847000  0.05666000  0.41678000  1.0
  C  C613  1  0.07042000  0.03582000  0.44147000  1.0
  C  C614  1  0.04430000  0.02141000  0.46369000  1.0
  C  C615  1  0.99651000  0.04743000  0.43705000  1.0
  C  C616  1  0.04951000  0.60130000  0.02229000  1.0
  C  C617  1  0.07324000  0.49114000  0.94504000  1.0
  C  C618  1  0.07732000  0.50048000  0.91083000  1.0
  C  C619  1  0.05633000  0.52464000  0.89833000  1.0
  C  C620  1  0.03151000  0.53905000  0.92053000  1.0
  C  C621  1  0.04841000  0.50699000  0.96632000  1.0
  C  C622  1  0.93351000  0.53444000  0.93513000  1.0
  C  C623  1  0.95021000  0.54699000  0.08000000  1.0
  C  C624  1  0.95136000  0.51282000  0.08648000  1.0
  C  C625  1  0.96433000  0.48956000  0.06123000  1.0
  C  C626  1  0.97667000  0.50143000  0.02980000  1.0
  C  C627  1  0.96358000  0.55751000  0.04861000  1.0
  C  C628  1  0.52053000  0.46703000  0.38952000  1.0
  C  C629  1  0.44381000  0.54818000  0.50308000  1.0
  C  C630  1  0.41579000  0.54527000  0.47620000  1.0
  C  C631  1  0.42212000  0.53158000  0.44218000  1.0
  C  C632  1  0.45669000  0.52070000  0.43575000  1.0
  C  C633  1  0.47812000  0.53731000  0.49504000  1.0
  C  C634  1  0.55813000  0.58609000  0.45318000  1.0
  C  C635  1  0.60082000  0.44336000  0.48183000  1.0
  C  C636  1  0.58078000  0.42722000  0.50738000  1.0
  C  C637  1  0.54669000  0.43766000  0.51728000  1.0
  C  C638  1  0.53315000  0.46402000  0.50057000  1.0
  C  C639  1  0.58606000  0.46966000  0.46630000  1.0
  C  C640  1  0.49352000  0.95524000  0.89725000  1.0
  C  C641  1  0.47982000  0.07631000  0.92452000  1.0
  C  C642  1  0.51653000  0.09263000  0.92900000  1.0
  C  C643  1  0.54395000  0.07744000  0.94642000  1.0
  C  C644  1  0.53389000  0.04523000  0.95836000  1.0
  C  C645  1  0.47133000  0.04431000  0.93703000  1.0
  C  C646  1  0.43598000  0.00901000  0.01642000  1.0
  C  C647  1  0.57465000  0.93657000  0.00018000  1.0
  C  C648  1  0.56793000  0.93268000  0.03537000  1.0
  C  C649  1  0.53806000  0.94625000  0.05097000  1.0
  C  C650  1  0.51442000  0.96264000  0.03043000  1.0
  C  C651  1  0.55044000  0.95369000  0.98095000  1.0
  C  C652  1  0.06017000  0.11338000  0.69488000  1.0
  C  C653  1  0.02975000  0.12842000  0.70762000  1.0
  C  C654  1  0.99832000  0.12905000  0.68567000  1.0
  C  C655  1  0.99664000  0.11424000  0.65095000  1.0
  C  C656  1  0.05847000  0.09846000  0.65991000  1.0
  C  C657  1  0.02658000  0.09793000  0.63778000  1.0
  C  C658  1  0.99156000  0.06884000  0.58873000  1.0
  C  C659  1  0.92635000  0.37875000  0.15372000  1.0
  C  C660  1  0.95113000  0.35583000  0.14285000  1.0
  C  C661  1  0.97171000  0.36086000  0.11349000  1.0
  C  C662  1  0.96770000  0.38868000  0.09453000  1.0
  C  C663  1  0.92213000  0.40664000  0.13444000  1.0
  C  C664  1  0.94315000  0.41246000  0.10518000  1.0
  C  C665  1  0.96747000  0.45324000  0.06873000  1.0
  C  C666  1  0.41590000  0.60416000  0.33381000  1.0
  C  C667  1  0.44965000  0.62252000  0.34837000  1.0
  C  C668  1  0.46052000  0.62099000  0.38346000  1.0
  C  C669  1  0.43795000  0.60099000  0.40428000  1.0
  C  C670  1  0.39335000  0.58391000  0.35483000  1.0
  C  C671  1  0.40461000  0.58179000  0.38988000  1.0
  C  C672  1  0.39296000  0.53037000  0.41271000  1.0
  C  C673  1  0.58552000  0.86534000  0.83554000  1.0
  C  C674  1  0.58438000  0.85148000  0.86781000  1.0
  C  C675  1  0.56204000  0.86354000  0.89371000  1.0
  C  C676  1  0.54003000  0.88907000  0.88754000  1.0
  C  C677  1  0.56286000  0.89065000  0.82916000  1.0
  C  C678  1  0.53943000  0.90243000  0.85461000  1.0
  C  C679  1  0.48630000  0.92995000  0.86510000  1.0
  C  C680  1  0.11099000  0.35553000  0.91761000  1.0
  C  C681  1  0.07488000  0.34726000  0.90195000  1.0
  C  C682  1  0.05268000  0.37307000  0.89745000  1.0
  C  C683  1  0.06621000  0.40732000  0.90866000  1.0
  C  C684  1  0.12476000  0.39010000  0.92827000  1.0
  C  C685  1  0.10227000  0.41602000  0.92467000  1.0
  C  C686  1  0.09563000  0.46567000  0.96001000  1.0
  C  C687  1  0.97044000  0.18130000  0.35426000  1.0
  C  C688  1  0.00417000  0.19599000  0.34205000  1.0
  C  C689  1  0.03776000  0.18526000  0.35249000  1.0
  C  C690  1  0.03803000  0.15927000  0.37458000  1.0
  C  C691  1  0.97084000  0.15471000  0.37611000  1.0
  C  C692  1  0.00451000  0.14334000  0.38590000  1.0
  C  C693  1  0.00857000  0.08652000  0.38950000  1.0
  C  C694  1  0.49328000  0.84845000  0.15391000  1.0
  C  C695  1  0.49991000  0.86965000  0.18569000  1.0
  C  C696  1  0.50864000  0.90510000  0.18574000  1.0
  C  C697  1  0.51084000  0.91977000  0.15413000  1.0
  C  C698  1  0.49505000  0.86330000  0.12213000  1.0
  C  C699  1  0.50466000  0.89880000  0.12170000  1.0
  C  C700  1  0.53037000  0.94167000  0.08851000  1.0
  C  C701  1  0.62490000  0.68613000  0.57060000  1.0
  C  C702  1  0.65240000  0.70584000  0.55388000  1.0
  C  C703  1  0.65272000  0.70265000  0.51736000  1.0
  C  C704  1  0.62619000  0.67922000  0.49715000  1.0
  C  C705  1  0.59851000  0.66227000  0.55020000  1.0
  C  C706  1  0.59918000  0.65802000  0.51350000  1.0
  C  C707  1  0.58381000  0.61841000  0.46393000  1.0
  C  C708  1  0.36797000  0.15452000  0.87624000  1.0
  C  C709  1  0.38590000  0.17525000  0.85257000  1.0
  C  C710  1  0.42471000  0.18035000  0.85248000  1.0
  C  C711  1  0.44601000  0.16415000  0.87523000  1.0
  C  C712  1  0.38961000  0.13788000  0.89869000  1.0
  C  C713  1  0.42855000  0.14230000  0.89788000  1.0
  C  C714  1  0.45081000  0.09206000  0.90478000  1.0
  C  C715  1  0.19545000  0.66666667  0.08236000  1.0
  C  C716  1  0.18885000  0.70038000  0.09290000  1.0
  C  C717  1  0.15535000  0.71149000  0.08289000  1.0
  C  C718  1  0.12826000  0.68932000  0.06196000  1.0
  C  C719  1  0.16828000  0.64461000  0.06097000  1.0
  C  C720  1  0.13431000  0.65528000  0.05113000  1.0
  C  C721  1  0.07201000  0.63479000  0.03538000  1.0
  C  C722  1  0.81386000  0.87076000  0.62070000  1.0
  C  C723  1  0.78374000  0.85886000  0.59668000  1.0
  C  C724  1  0.78878000  0.85667000  0.56074000  1.0
  C  C725  1  0.82380000  0.86645000  0.54839000  1.0
  C  C726  1  0.84900000  0.88088000  0.60827000  1.0
  C  C727  1  0.85455000  0.87940000  0.57223000  1.0
  C  C728  1  0.89330000  0.89434000  0.52685000  1.0
  C  C729  1  0.71685000  0.39327000  0.39250000  1.0
  C  C730  1  0.73708000  0.42519000  0.38791000  1.0
  C  C731  1  0.72403000  0.45570000  0.40024000  1.0
  C  C732  1  0.69042000  0.45477000  0.41675000  1.0
  C  C733  1  0.68287000  0.39257000  0.40901000  1.0
  C  C734  1  0.66989000  0.42315000  0.42179000  1.0
  C  C735  1  0.63767000  0.43318000  0.47118000  1.0
  C  C736  1  0.81858000  0.91113000  0.31856000  1.0
  C  C737  1  0.79217000  0.93359000  0.31405000  1.0
  C  C738  1  0.79107000  0.96200000  0.33854000  1.0
  C  C739  1  0.81611000  0.96820000  0.36783000  1.0
  C  C740  1  0.84349000  0.91722000  0.34821000  1.0
  C  C741  1  0.84315000  0.94601000  0.37270000  1.0
  C  C742  1  0.88090000  0.98433000  0.41365000  1.0
  C  C743  1  0.07048000  0.60608000  0.78184000  1.0
  C  C744  1  0.04726000  0.63084000  0.79170000  1.0
  C  C745  1  0.03558000  0.63472000  0.82592000  1.0
  C  C746  1  0.04688000  0.61391000  0.85061000  1.0
  C  C747  1  0.08178000  0.58511000  0.80682000  1.0
  C  C748  1  0.06959000  0.58876000  0.84112000  1.0
  C  C749  1  0.06104000  0.53624000  0.86241000  1.0
  C  C750  1  0.60017000  0.38741000  0.63754000  1.0
  C  C751  1  0.61538000  0.42163000  0.64747000  1.0
  C  C752  1  0.60543000  0.44770000  0.62845000  1.0
  C  C753  1  0.58048000  0.43994000  0.59915000  1.0
  C  C754  1  0.57494000  0.37969000  0.60816000  1.0
  C  C755  1  0.56444000  0.40553000  0.58877000  1.0
  C  C756  1  0.52391000  0.42092000  0.54460000  1.0
  C  C757  1  0.38944000  0.09225000  0.13337000  1.0
  C  C758  1  0.39491000  0.11966000  0.11274000  1.0
  C  C759  1  0.40554000  0.11410000  0.07833000  1.0
  C  C760  1  0.41055000  0.08116000  0.06401000  1.0
  C  C761  1  0.39361000  0.05898000  0.11856000  1.0
  C  C762  1  0.40389000  0.05291000  0.08389000  1.0
  C  C763  1  0.40136000  0.00982000  0.03628000  1.0
  C  C764  1  0.89387000  0.67735000  0.12826000  1.0
  C  C765  1  0.92867000  0.69696000  0.12616000  1.0
  C  C766  1  0.95802000  0.68184000  0.11157000  1.0
  C  C767  1  0.95319000  0.64691000  0.09955000  1.0
  C  C768  1  0.88933000  0.64204000  0.11657000  1.0
  C  C769  1  0.91903000  0.62650000  0.10291000  1.0
  C  C770  1  0.93634000  0.57238000  0.10663000  1.0
  C  C771  1  0.09211000  0.81034000  0.56101000  1.0
  C  C772  1  0.06604000  0.78171000  0.54901000  1.0
  C  C773  1  0.02957000  0.78593000  0.53922000  1.0
  C  C774  1  0.01883000  0.81874000  0.54089000  1.0
  C  C775  1  0.08100000  0.84339000  0.56313000  1.0
  C  C776  1  0.04462000  0.84776000  0.55228000  1.0
  C  C777  1  0.03165000  0.89277000  0.52200000  1.0
  C  C778  1  0.61554000  0.17707000  0.87805000  1.0
  C  C779  1  0.65349000  0.17322000  0.87849000  1.0
  C  C780  1  0.66898000  0.15553000  0.90399000  1.0
  C  C781  1  0.64667000  0.14108000  0.92889000  1.0
  C  C782  1  0.59343000  0.16323000  0.90369000  1.0
  C  C783  1  0.60850000  0.14423000  0.92839000  1.0
  C  C784  1  0.58391000  0.09400000  0.94983000  1.0
  C  C785  1  0.45472000  0.33881000  0.33987000  1.0
  C  C786  1  0.42112000  0.35114000  0.34762000  1.0
  C  C787  1  0.41987000  0.38635000  0.35415000  1.0
  C  C788  1  0.45214000  0.40969000  0.35358000  1.0
  C  C789  1  0.48714000  0.36234000  0.33931000  1.0
  C  C790  1  0.48658000  0.39787000  0.34600000  1.0
  C  C791  1  0.52008000  0.45436000  0.35125000  1.0
  C  C792  1  0.68172000  0.91225000  0.06880000  1.0
  C  C793  1  0.68298000  0.94209000  0.09235000  1.0
  C  C794  1  0.67170000  0.97191000  0.08112000  1.0
  C  C795  1  0.65793000  0.97202000  0.04663000  1.0
  C  C796  1  0.66765000  0.91248000  0.03411000  1.0
  C  C797  1  0.65473000  0.94212000  0.02319000  1.0
  C  C798  1  0.60612000  0.92086000  0.98300000  1.0
  C  C799  1  0.81847000  0.43143000  0.90693000  1.0
  C  C800  1  0.81194000  0.43746000  0.94260000  1.0
  C  C801  1  0.83004000  0.46670000  0.96269000  1.0
  C  C802  1  0.85448000  0.49043000  0.94739000  1.0
  C  C803  1  0.84239000  0.45566000  0.89139000  1.0
  C  C804  1  0.86073000  0.48535000  0.91105000  1.0
  C  C805  1  0.90017000  0.53837000  0.91215000  1.0
  C  C806  1  0.21473000  0.09541000  0.40369000  1.0
  C  C807  1  0.20784000  0.12531000  0.42395000  1.0
  C  C808  1  0.17480000  0.12587000  0.44119000  1.0
  C  C809  1  0.14859000  0.09649000  0.43890000  1.0
  C  C810  1  0.18840000  0.06580000  0.40163000  1.0
  C  C811  1  0.15554000  0.06571000  0.41961000  1.0
  C  C812  1  0.11045000  0.02910000  0.44502000  1.0
  C  C813  1  0.33894000  0.60669000  0.59894000  1.0
  C  C814  1  0.36322000  0.62387000  0.62636000  1.0
  C  C815  1  0.40069000  0.61921000  0.62783000  1.0
  C  C816  1  0.41435000  0.59717000  0.60219000  1.0
  C  C817  1  0.35275000  0.58429000  0.57331000  1.0
  C  C818  1  0.39048000  0.57975000  0.57416000  1.0
  C  C819  1  0.43846000  0.56546000  0.53899000  1.0
  N  N820  1  0.97046000  0.96122000  0.50512000  1.0
  N  N821  1  0.00808000  0.02684000  0.46054000  1.0
  N  N822  1  0.02797000  0.53007000  0.95358000  1.0
  N  N823  1  0.97665000  0.53505000  0.02459000  1.0
  N  N824  1  0.48371000  0.52387000  0.46195000  1.0
  N  N825  1  0.55286000  0.47914000  0.47563000  1.0
  N  N826  1  0.49820000  0.02952000  0.95326000  1.0
  N  N827  1  0.52087000  0.96586000  0.99617000  1.0
  O  O828  1  0.21706000  0.30731000  0.91560000  1.0
  O  O829  1  0.14520000  0.31373000  0.89010000  1.0
  O  O830  1  0.07775000  0.20313000  0.75180000  1.0
  O  O831  1  0.11154000  0.14754000  0.72742000  1.0
  O  O832  1  0.27789000  0.13272000  0.80268000  1.0
  O  O833  1  0.30967000  0.17456000  0.86285000  1.0
  O  O834  1  0.80406000  0.32009000  0.41265000  1.0
  O  O835  1  0.76804000  0.36339000  0.37518000  1.0
  O  O836  1  0.82116000  0.38857000  0.20545000  1.0
  O  O837  1  0.86973000  0.35007000  0.17038000  1.0
  O  O838  1  0.96119000  0.24780000  0.27720000  1.0
  O  O839  1  0.93796000  0.22789000  0.34054000  1.0
  O  O840  1  0.24911000  0.62628000  0.17809000  1.0
  O  O841  1  0.24546000  0.66857000  0.12553000  1.0
  O  O842  1  0.38321000  0.79439000  0.11479000  1.0
  O  O843  1  0.44422000  0.80436000  0.16082000  1.0
  O  O844  1  0.45005000  0.69715000  0.28864000  1.0
  O  O845  1  0.39826000  0.64090000  0.29249000  1.0
  O  O846  1  0.58332000  0.74211000  0.67574000  1.0
  O  O847  1  0.62925000  0.72417000  0.62335000  1.0
  O  O848  1  0.81003000  0.79100000  0.62302000  1.0
  O  O849  1  0.82895000  0.84612000  0.67290000  1.0
  O  O850  1  0.70992000  0.89292000  0.80491000  1.0
  O  O851  1  0.64689000  0.85493000  0.82415000  1.0
  O  O852  1  0.82741000  0.75455000  0.07665000  1.0
  O  O853  1  0.85911000  0.72492000  0.13009000  1.0
  O  O854  1  0.84207000  0.79922000  0.29402000  1.0
  O  O855  1  0.79831000  0.85155000  0.30763000  1.0
  O  O856  1  0.72261000  0.91420000  0.17333000  1.0
  O  O857  1  0.72367000  0.88668000  0.10485000  1.0
  O  O858  1  0.28496000  0.70408000  0.57811000  1.0
  O  O859  1  0.29311000  0.64487000  0.60693000  1.0
  O  O860  1  0.16891000  0.60026000  0.72653000  1.0
  O  O861  1  0.10649000  0.63286000  0.73929000  1.0
  O  O862  1  0.08516000  0.77495000  0.65154000  1.0
  O  O863  1  0.13602000  0.79600000  0.60487000  1.0
  O  O864  1  0.74868000  0.43697000  0.80914000  1.0
  O  O865  1  0.76641000  0.40819000  0.86858000  1.0
  O  O866  1  0.66450000  0.26102000  0.90437000  1.0
  O  O867  1  0.60506000  0.23175000  0.85983000  1.0
  O  O868  1  0.56496000  0.31190000  0.71380000  1.0
  O  O869  1  0.61088000  0.36645000  0.69291000  1.0
  O  O870  1  0.45245000  0.25153000  0.25430000  1.0
  O  O871  1  0.42637000  0.28330000  0.31408000  1.0
  O  O872  1  0.27951000  0.19070000  0.38390000  1.0
  O  O873  1  0.25573000  0.12236000  0.36473000  1.0
  O  O874  1  0.33907000  0.04664000  0.22100000  1.0
  O  O875  1  0.40044000  0.08056000  0.19222000  1.0
  O  O876  1  0.92258000  0.00633000  0.46456000  1.0
  O  O877  1  0.94237000  0.96774000  0.42392000  1.0
  O  O878  1  0.96804000  0.04000000  0.53193000  1.0
  O  O879  1  0.02314000  0.02716000  0.55404000  1.0
  O  O880  1  0.02215000  0.59976000  0.99838000  1.0
  O  O881  1  0.05723000  0.57303000  0.03469000  1.0
  O  O882  1  0.95209000  0.56150000  0.95366000  1.0
  O  O883  1  0.94467000  0.50419000  0.93652000  1.0
  O  O884  1  0.53310000  0.49925000  0.40039000  1.0
  O  O885  1  0.50880000  0.44606000  0.41242000  1.0
  O  O886  1  0.56777000  0.55639000  0.46011000  1.0
  O  O887  1  0.52530000  0.58745000  0.43802000  1.0
  O  O888  1  0.47285000  0.95173000  0.92435000  1.0
  O  O889  1  0.52069000  0.98079000  0.89849000  1.0
  O  O890  1  0.43792000  0.98424000  0.99121000  1.0
  O  O891  1  0.46498000  0.03237000  0.02480000  1.0
  O  O892  1  0.02734000  0.08285000  0.60337000  1.0
  O  O893  1  0.93656000  0.44025000  0.08707000  1.0
  O  O894  1  0.38137000  0.56307000  0.41071000  1.0
  O  O895  1  0.51895000  0.92845000  0.84633000  1.0
  O  O896  1  0.11723000  0.44984000  0.93473000  1.0
  O  O897  1  0.00489000  0.11834000  0.40865000  1.0
  O  O898  1  0.50508000  0.91138000  0.08903000  1.0
  O  O899  1  0.57153000  0.63437000  0.49520000  1.0
  O  O900  1  0.44988000  0.12606000  0.91996000  1.0
  O  O901  1  0.10965000  0.63237000  0.02864000  1.0
  O  O902  1  0.89068000  0.88997000  0.56279000  1.0
  O  O903  1  0.63483000  0.42182000  0.43487000  1.0
  O  O904  1  0.86784000  0.94958000  0.40200000  1.0
  O  O905  1  0.08173000  0.56945000  0.86635000  1.0
  O  O906  1  0.54079000  0.39464000  0.55899000  1.0
  O  O907  1  0.41059000  0.01974000  0.07244000  1.0
  O  O908  1  0.91272000  0.59225000  0.08940000  1.0
  O  O909  1  0.03360000  0.88021000  0.55534000  1.0
  O  O910  1  0.58574000  0.13035000  0.95287000  1.0
  O  O911  1  0.52094000  0.41847000  0.34594000  1.0
  O  O912  1  0.64024000  0.94298000  0.98933000  1.0
  O  O913  1  0.88489000  0.50690000  0.89294000  1.0
  O  O914  1  0.12998000  0.03594000  0.41469000  1.0
  O  O915  1  0.40160000  0.55609000  0.54861000  1.0
