# generated using pymatgen
data_MnH20C24(N4O)2
_symmetry_space_group_name_H-M   'P 1'
_cell_length_a   40.69850000
_cell_length_b   40.69850000
_cell_length_c   42.48670000
_cell_angle_alpha   90.00000000
_cell_angle_beta   90.00000000
_cell_angle_gamma   120.00000000
_symmetry_Int_Tables_number   1
_chemical_formula_structural   MnH20C24(N4O)2
_chemical_formula_sum   'Mn18 H360 C432 N144 O36'
_cell_volume   60945.33068401
_cell_formula_units_Z   18
loop_
 _symmetry_equiv_pos_site_id
 _symmetry_equiv_pos_as_xyz
  1  'x, y, z'
loop_
 _atom_site_type_symbol
 _atom_site_label
 _atom_site_symmetry_multiplicity
 _atom_site_fract_x
 _atom_site_fract_y
 _atom_site_fract_z
 _atom_site_occupancy
  Mn  Mn0  1  0.64224000  0.65496000  0.70613000  1.0
  Mn  Mn1  1  0.64585000  0.82211000  0.77096000  1.0
  Mn  Mn2  1  0.64426000  0.73981000  0.73552000  1.0
  Mn  Mn3  1  0.30901000  0.99533000  0.70496000  1.0
  Mn  Mn4  1  0.14675000  0.82427000  0.76635000  1.0
  Mn  Mn5  1  0.22650000  0.90885000  0.73248000  1.0
  Mn  Mn6  1  0.97463000  0.32613000  0.69840000  1.0
  Mn  Mn7  1  0.13954000  0.32172000  0.75917000  1.0
  Mn  Mn8  1  0.05827000  0.32421000  0.72583000  1.0
  Mn  Mn9  1  0.97795000  0.32725000  0.25714000  1.0
  Mn  Mn10  1  0.81521000  0.16034000  0.19095000  1.0
  Mn  Mn11  1  0.89566000  0.24234000  0.22712000  1.0
  Mn  Mn12  1  0.64020000  0.65326000  0.26217000  1.0
  Mn  Mn13  1  0.80918000  0.65850000  0.19972000  1.0
  Mn  Mn14  1  0.72604000  0.65621000  0.23419000  1.0
  Mn  Mn15  1  0.30913000  0.98771000  0.26195000  1.0
  Mn  Mn16  1  0.30689000  0.15282000  0.19891000  1.0
  Mn  Mn17  1  0.30804000  0.07139000  0.23340000  1.0
  H  H18  1  0.66999000  0.66300000  0.12241000  1.0
  H  H19  1  0.65243000  0.67509000  0.07030000  1.0
  H  H20  1  0.75010000  0.67622000  0.02993000  1.0
  H  H21  1  0.76813000  0.66461000  0.08192000  1.0
  H  H22  1  0.72230000  0.75590000  0.95912000  1.0
  H  H23  1  0.63936000  0.63248000  0.01133000  1.0
  H  H24  1  0.66570000  0.66671000  0.89895000  1.0
  H  H25  1  0.65354000  0.68411000  0.84686000  1.0
  H  H26  1  0.64670000  0.77742000  0.88828000  1.0
  H  H27  1  0.65815000  0.75941000  0.94030000  1.0
  H  H28  1  0.58954000  0.62060000  0.97447000  1.0
  H  H29  1  0.59786000  0.65062000  0.94100000  1.0
  H  H30  1  0.59179000  0.56676000  0.90785000  1.0
  H  H31  1  0.57692000  0.60113000  0.90345000  1.0
  H  H32  1  0.56150000  0.56892000  0.93733000  1.0
  H  H33  1  0.75492000  0.78108000  0.00782000  1.0
  H  H34  1  0.74513000  0.75180000  0.04203000  1.0
  H  H35  1  0.83672000  0.76953000  0.01720000  1.0
  H  H36  1  0.80884000  0.76751000  0.05051000  1.0
  H  H37  1  0.82072000  0.80320000  0.01965000  1.0
  H  H38  1  0.34197000  0.06709000  0.38168000  1.0
  H  H39  1  0.31794000  0.04800000  0.43526000  1.0
  H  H40  1  0.20537000  0.01657000  0.40358000  1.0
  H  H41  1  0.22975000  0.03644000  0.34981000  1.0
  H  H42  1  0.25783000  0.02717000  0.53376000  1.0
  H  H43  1  0.21137000  0.95737000  0.43313000  1.0
  H  H44  1  0.18179000  0.96960000  0.56285000  1.0
  H  H45  1  0.18490000  0.94865000  0.61650000  1.0
  H  H46  1  0.26211000  0.91237000  0.58446000  1.0
  H  H47  1  0.25855000  0.93266000  0.53091000  1.0
  H  H48  1  0.17718000  0.89949000  0.45875000  1.0
  H  H49  1  0.20281000  0.89740000  0.49258000  1.0
  H  H50  1  0.10648000  0.85207000  0.51917000  1.0
  H  H51  1  0.14937000  0.84997000  0.51983000  1.0
  H  H52  1  0.12403000  0.84464000  0.48280000  1.0
  H  H53  1  0.31149000  0.08139000  0.48737000  1.0
  H  H54  1  0.27950000  0.08789000  0.46167000  1.0
  H  H55  1  0.28619000  0.14100000  0.53107000  1.0
  H  H56  1  0.29594000  0.14474000  0.48974000  1.0
  H  H57  1  0.32502000  0.13583000  0.51755000  1.0
  H  H58  1  0.07958000  0.29235000  0.87421000  1.0
  H  H59  1  0.05147000  0.28310000  0.92656000  1.0
  H  H60  1  0.98339000  0.33058000  0.89464000  1.0
  H  H61  1  0.01013000  0.33808000  0.84173000  1.0
  H  H62  1  0.01909000  0.31073000  0.02558000  1.0
  H  H63  1  0.94188000  0.27221000  0.92823000  1.0
  H  H64  1  0.97692000  0.32685000  0.05952000  1.0
  H  H65  1  0.94899000  0.30696000  0.11207000  1.0
  H  H66  1  0.88069000  0.19210000  0.07852000  1.0
  H  H67  1  0.90997000  0.21157000  0.02666000  1.0
  H  H68  1  0.88608000  0.22374000  0.97663000  1.0
  H  H69  1  0.88801000  0.26032000  0.00254000  1.0
  H  H70  1  0.83541000  0.26170000  0.93550000  1.0
  H  H71  1  0.83272000  0.25292000  0.97696000  1.0
  H  H72  1  0.83326000  0.21898000  0.94893000  1.0
  H  H73  1  0.07501000  0.31856000  0.97715000  1.0
  H  H74  1  0.07290000  0.35312000  0.95126000  1.0
  H  H75  1  0.12531000  0.40721000  0.01833000  1.0
  H  H76  1  0.12803000  0.40125000  0.97685000  1.0
  H  H77  1  0.12775000  0.36683000  0.00482000  1.0
  H  H78  1  0.62754000  0.74413000  0.58931000  1.0
  H  H79  1  0.64798000  0.74683000  0.53448000  1.0
  H  H80  1  0.75272000  0.75629000  0.56702000  1.0
  H  H81  1  0.73276000  0.75471000  0.62138000  1.0
  H  H82  1  0.77848000  0.77771000  0.45625000  1.0
  H  H83  1  0.65849000  0.69132000  0.51160000  1.0
  H  H84  1  0.73390000  0.66358000  0.43540000  1.0
  H  H85  1  0.73134000  0.64167000  0.38103000  1.0
  H  H86  1  0.73579000  0.74338000  0.34660000  1.0
  H  H87  1  0.73708000  0.76463000  0.40063000  1.0
  H  H88  1  0.63257000  0.65777000  0.46359000  1.0
  H  H89  1  0.66089000  0.66708000  0.42895000  1.0
  H  H90  1  0.64667000  0.57738000  0.45566000  1.0
  H  H91  1  0.64703000  0.60372000  0.42180000  1.0
  H  H92  1  0.61190000  0.59195000  0.45314000  1.0
  H  H93  1  0.78597000  0.82857000  0.49150000  1.0
  H  H94  1  0.75924000  0.81829000  0.52731000  1.0
  H  H95  1  0.85035000  0.83500000  0.55271000  1.0
  H  H96  1  0.81328000  0.84541000  0.56047000  1.0
  H  H97  1  0.84134000  0.86195000  0.52422000  1.0
  H  H98  1  0.27188000  0.08845000  0.08539000  1.0
  H  H99  1  0.26164000  0.05938000  0.03335000  1.0
  H  H100  1  0.31059000  0.99257000  0.06518000  1.0
  H  H101  1  0.31899000  0.02021000  0.11783000  1.0
  H  H102  1  0.28932000  0.02717000  0.93434000  1.0
  H  H103  1  0.25213000  0.95032000  0.03187000  1.0
  H  H104  1  0.30692000  0.98642000  0.90086000  1.0
  H  H105  1  0.28806000  0.95918000  0.84809000  1.0
  H  H106  1  0.17327000  0.88784000  0.88071000  1.0
  H  H107  1  0.19166000  0.91655000  0.93293000  1.0
  H  H108  1  0.20415000  0.89390000  0.98353000  1.0
  H  H109  1  0.24108000  0.89649000  0.95769000  1.0
  H  H110  1  0.24355000  0.84466000  0.02486000  1.0
  H  H111  1  0.23489000  0.84176000  0.98337000  1.0
  H  H112  1  0.20044000  0.84154000  0.01128000  1.0
  H  H113  1  0.29667000  0.08300000  0.98274000  1.0
  H  H114  1  0.33172000  0.08146000  0.00839000  1.0
  H  H115  1  0.38488000  0.13399000  0.94104000  1.0
  H  H116  1  0.37920000  0.13674000  0.98255000  1.0
  H  H117  1  0.34432000  0.13593000  0.95481000  1.0
  H  H118  1  0.04939000  0.35543000  0.57775000  1.0
  H  H119  1  0.03042000  0.33099000  0.52426000  1.0
  H  H120  1  0.00225000  0.21936000  0.55610000  1.0
  H  H121  1  0.02205000  0.24419000  0.60979000  1.0
  H  H122  1  0.01155000  0.27155000  0.42587000  1.0
  H  H123  1  0.94182000  0.22341000  0.52634000  1.0
  H  H124  1  0.95538000  0.19604000  0.39583000  1.0
  H  H125  1  0.93416000  0.19970000  0.34239000  1.0
  H  H126  1  0.89512000  0.27402000  0.37623000  1.0
  H  H127  1  0.91564000  0.26989000  0.42952000  1.0
  H  H128  1  0.88422000  0.18796000  0.50059000  1.0
  H  H129  1  0.88145000  0.21384000  0.46722000  1.0
  H  H130  1  0.83790000  0.11808000  0.43942000  1.0
  H  H131  1  0.83466000  0.16035000  0.43959000  1.0
  H  H132  1  0.83003000  0.13453000  0.47620000  1.0
  H  H133  1  0.06495000  0.32562000  0.47238000  1.0
  H  H134  1  0.07228000  0.29415000  0.49805000  1.0
  H  H135  1  0.12610000  0.30231000  0.42875000  1.0
  H  H136  1  0.12949000  0.31182000  0.47012000  1.0
  H  H137  1  0.11987000  0.34047000  0.44237000  1.0
  H  H138  1  0.49885000  0.66651000  0.76714000  1.0
  H  H139  1  0.43082000  0.64045000  0.75742000  1.0
  H  H140  1  0.42774000  0.54870000  0.70442000  1.0
  H  H141  1  0.49558000  0.57458000  0.71376000  1.0
  H  H142  1  0.32298000  0.56386000  0.66258000  1.0
  H  H143  1  0.36793000  0.55340000  0.76863000  1.0
  H  H144  1  0.28212000  0.48387000  0.66328000  1.0
  H  H145  1  0.21868000  0.42857000  0.65924000  1.0
  H  H146  1  0.17746000  0.47805000  0.72688000  1.0
  H  H147  1  0.24100000  0.53359000  0.73107000  1.0
  H  H148  1  0.27739000  0.52343000  0.77425000  1.0
  H  H149  1  0.26916000  0.48169000  0.75200000  1.0
  H  H150  1  0.29939000  0.46932000  0.82806000  1.0
  H  H151  1  0.26056000  0.44981000  0.80090000  1.0
  H  H152  1  0.27284000  0.49315000  0.82296000  1.0
  H  H153  1  0.38474000  0.61564000  0.65050000  1.0
  H  H154  1  0.42251000  0.63258000  0.67890000  1.0
  H  H155  1  0.45216000  0.59097000  0.61912000  1.0
  H  H156  1  0.46763000  0.63075000  0.64497000  1.0
  H  H157  1  0.43304000  0.62177000  0.61373000  1.0
  H  H158  1  0.30734000  0.84572000  0.76685000  1.0
  H  H159  1  0.33782000  0.80780000  0.75684000  1.0
  H  H160  1  0.42762000  0.90177000  0.70645000  1.0
  H  H161  1  0.39772000  0.93982000  0.71670000  1.0
  H  H162  1  0.39032000  0.74835000  0.68617000  1.0
  H  H163  1  0.45413000  0.86911000  0.74607000  1.0
  H  H164  1  0.49319000  0.80783000  0.66181000  1.0
  H  H165  1  0.54492000  0.79372000  0.66210000  1.0
  H  H166  1  0.49073000  0.71473000  0.73807000  1.0
  H  H167  1  0.43912000  0.72902000  0.73799000  1.0
  H  H168  1  0.50490000  0.85891000  0.75841000  1.0
  H  H169  1  0.50636000  0.81810000  0.74447000  1.0
  H  H170  1  0.58119000  0.89561000  0.70199000  1.0
  H  H171  1  0.56927000  0.85453000  0.72529000  1.0
  H  H172  1  0.57004000  0.89610000  0.74269000  1.0
  H  H173  1  0.32519000  0.75592000  0.71103000  1.0
  H  H174  1  0.33584000  0.80004000  0.69187000  1.0
  H  H175  1  0.30001000  0.73073000  0.63016000  1.0
  H  H176  1  0.28904000  0.76003000  0.65430000  1.0
  H  H177  1  0.28556000  0.71644000  0.66994000  1.0
  H  H178  1  0.12687000  0.47015000  0.76336000  1.0
  H  H179  1  0.16729000  0.53857000  0.75404000  1.0
  H  H180  1  0.07892000  0.53785000  0.69755000  1.0
  H  H181  1  0.03858000  0.47004000  0.70690000  1.0
  H  H182  1  0.23370000  0.65275000  0.68571000  1.0
  H  H183  1  0.10874000  0.59528000  0.73917000  1.0
  H  H184  1  0.17908000  0.69856000  0.65734000  1.0
  H  H185  1  0.19270000  0.76421000  0.65881000  1.0
  H  H186  1  0.26210000  0.78450000  0.74104000  1.0
  H  H187  1  0.24847000  0.71891000  0.73963000  1.0
  H  H188  1  0.11850000  0.65605000  0.75147000  1.0
  H  H189  1  0.16025000  0.69858000  0.73931000  1.0
  H  H190  1  0.08541000  0.69603000  0.69250000  1.0
  H  H191  1  0.12325000  0.72423000  0.71908000  1.0
  H  H192  1  0.08059000  0.68156000  0.73283000  1.0
  H  H193  1  0.22454000  0.58040000  0.70926000  1.0
  H  H194  1  0.18100000  0.54643000  0.68965000  1.0
  H  H195  1  0.25256000  0.58152000  0.62922000  1.0
  H  H196  1  0.22255000  0.54057000  0.65238000  1.0
  H  H197  1  0.26519000  0.58067000  0.66940000  1.0
  H  H198  1  0.91395000  0.40901000  0.24424000  1.0
  H  H199  1  0.87151000  0.43455000  0.25290000  1.0
  H  H200  1  0.78327000  0.34140000  0.20079000  1.0
  H  H201  1  0.82584000  0.31595000  0.19148000  1.0
  H  H202  1  0.76942000  0.46375000  0.20585000  1.0
  H  H203  1  0.78698000  0.38110000  0.28134000  1.0
  H  H204  1  0.69890000  0.44715000  0.22782000  1.0
  H  H205  1  0.69326000  0.50412000  0.23124000  1.0
  H  H206  1  0.78167000  0.55055000  0.30096000  1.0
  H  H207  1  0.78753000  0.49383000  0.29771000  1.0
  H  H208  1  0.76791000  0.42760000  0.32286000  1.0
  H  H209  1  0.72151000  0.41586000  0.30773000  1.0
  H  H210  1  0.70322000  0.33374000  0.35196000  1.0
  H  H211  1  0.69048000  0.36962000  0.34717000  1.0
  H  H212  1  0.73677000  0.38132000  0.36345000  1.0
  H  H213  1  0.83547000  0.46497000  0.18154000  1.0
  H  H214  1  0.82042000  0.41580000  0.17364000  1.0
  H  H215  1  0.78081000  0.44333000  0.11053000  1.0
  H  H216  1  0.81325000  0.42710000  0.11975000  1.0
  H  H217  1  0.82504000  0.47585000  0.12867000  1.0
  H  H218  1  0.56190000  0.50702000  0.25340000  1.0
  H  H219  1  0.53623000  0.43883000  0.26047000  1.0
  H  H220  1  0.62507000  0.44384000  0.20190000  1.0
  H  H221  1  0.65056000  0.51205000  0.19421000  1.0
  H  H222  1  0.50977000  0.30832000  0.20492000  1.0
  H  H223  1  0.58344000  0.40539000  0.28575000  1.0
  H  H224  1  0.52161000  0.25318000  0.22678000  1.0
  H  H225  1  0.46428000  0.19058000  0.22805000  1.0
  H  H226  1  0.41592000  0.23022000  0.29813000  1.0
  H  H227  1  0.47275000  0.29269000  0.29684000  1.0
  H  H228  1  0.53637000  0.33937000  0.32456000  1.0
  H  H229  1  0.54758000  0.30416000  0.30991000  1.0
  H  H230  1  0.62788000  0.36691000  0.35711000  1.0
  H  H231  1  0.59171000  0.31841000  0.35184000  1.0
  H  H232  1  0.57997000  0.35372000  0.36635000  1.0
  H  H233  1  0.51460000  0.35485000  0.16978000  1.0
  H  H234  1  0.53382000  0.40303000  0.18256000  1.0
  H  H235  1  0.59743000  0.40990000  0.12139000  1.0
  H  H236  1  0.57240000  0.43156000  0.13789000  1.0
  H  H237  1  0.54664000  0.38382000  0.12084000  1.0
  H  H238  1  0.74370000  0.19774000  0.29692000  1.0
  H  H239  1  0.67842000  0.18542000  0.29695000  1.0
  H  H240  1  0.70294000  0.25703000  0.21552000  1.0
  H  H241  1  0.76786000  0.26885000  0.21533000  1.0
  H  H242  1  0.56435000  0.20599000  0.25021000  1.0
  H  H243  1  0.64891000  0.15336000  0.22963000  1.0
  H  H244  1  0.52104000  0.17510000  0.19783000  1.0
  H  H245  1  0.45195000  0.13599000  0.19186000  1.0
  H  H246  1  0.45255000  0.04965000  0.25055000  1.0
  H  H247  1  0.52093000  0.08895000  0.25701000  1.0
  H  H248  1  0.57258000  0.08463000  0.22661000  1.0
  H  H249  1  0.55187000  0.09836000  0.19490000  1.0
  H  H250  1  0.61640000  0.07612000  0.15611000  1.0
  H  H251  1  0.56749000  0.06285000  0.15972000  1.0
  H  H252  1  0.59154000  0.05213000  0.19114000  1.0
  H  H253  1  0.61402000  0.25905000  0.27683000  1.0
  H  H254  1  0.65722000  0.25934000  0.28626000  1.0
  H  H255  1  0.68998000  0.33915000  0.23509000  1.0
  H  H256  1  0.70367000  0.31972000  0.26688000  1.0
  H  H257  1  0.66301000  0.32723000  0.27079000  1.0
  H  H258  1  0.76644000  0.87619000  0.66477000  1.0
  H  H259  1  0.81756000  0.94233000  0.66028000  1.0
  H  H260  1  0.84849000  0.93968000  0.75696000  1.0
  H  H261  1  0.79881000  0.87373000  0.76087000  1.0
  H  H262  1  0.83781000  0.06260000  0.70676000  1.0
  H  H263  1  0.90699000  0.99317000  0.72618000  1.0
  H  H264  1  0.86186000  0.10472000  0.75784000  1.0
  H  H265  1  0.89022000  0.17390000  0.76384000  1.0
  H  H266  1  0.98318000  0.19073000  0.70448000  1.0
  H  H267  1  0.95502000  0.12246000  0.69800000  1.0
  H  H268  1  0.96884000  0.06943000  0.72608000  1.0
  H  H269  1  0.95567000  0.09364000  0.75497000  1.0
  H  H270  1  0.98417000  0.03833000  0.80095000  1.0
  H  H271  1  0.99631000  0.08581000  0.79085000  1.0
  H  H272  1  0.00447000  0.05617000  0.76310000  1.0
  H  H273  1  0.79089000  0.98451000  0.67152000  1.0
  H  H274  1  0.77744000  0.95841000  0.70861000  1.0
  H  H275  1  0.72259000  0.00490000  0.70601000  1.0
  H  H276  1  0.71964000  0.95951000  0.70669000  1.0
  H  H277  1  0.73496000  0.98891000  0.67111000  1.0
  H  H278  1  0.10311000  0.93245000  0.74804000  1.0
  H  H279  1  0.03912000  0.92210000  0.75389000  1.0
  H  H280  1  0.00489000  0.85470000  0.66938000  1.0
  H  H281  1  0.06881000  0.86396000  0.66412000  1.0
  H  H282  1  0.89092000  0.85788000  0.70043000  1.0
  H  H283  1  0.98596000  0.83917000  0.75850000  1.0
  H  H284  1  0.85662000  0.75169000  0.72271000  1.0
  H  H285  1  0.78807000  0.71089000  0.72987000  1.0
  H  H286  1  0.78264000  0.80521000  0.77093000  1.0
  H  H287  1  0.85103000  0.84569000  0.76356000  1.0
  H  H288  1  0.93925000  0.80315000  0.79789000  1.0
  H  H289  1  0.89064000  0.79112000  0.79335000  1.0
  H  H290  1  0.88800000  0.70291000  0.78009000  1.0
  H  H291  1  0.86468000  0.72485000  0.79919000  1.0
  H  H292  1  0.91281000  0.73668000  0.81064000  1.0
  H  H293  1  0.94146000  0.91562000  0.67785000  1.0
  H  H294  1  0.99042000  0.93036000  0.68535000  1.0
  H  H295  1  0.97740000  0.90117000  0.60457000  1.0
  H  H296  1  0.00786000  0.93744000  0.63159000  1.0
  H  H297  1  0.95999000  0.92887000  0.62332000  1.0
  H  H298  1  0.08136000  0.20491000  0.65067000  1.0
  H  H299  1  0.09291000  0.15131000  0.64981000  1.0
  H  H300  1  0.04618000  0.12010000  0.74326000  1.0
  H  H301  1  0.03236000  0.17165000  0.74315000  1.0
  H  H302  1  0.18185000  0.12467000  0.70837000  1.0
  H  H303  1  0.04160000  0.05990000  0.71278000  1.0
  H  H304  1  0.19238000  0.09966000  0.76019000  1.0
  H  H305  1  0.23317000  0.07197000  0.76929000  1.0
  H  H306  1  0.16132000  0.97842000  0.70866000  1.0
  H  H307  1  0.12142000  0.00625000  0.69870000  1.0
  H  H308  1  0.05641000  0.99519000  0.71601000  1.0
  H  H309  1  0.08470000  0.00813000  0.75182000  1.0
  H  H310  1  0.98863000  0.97505000  0.77736000  1.0
  H  H311  1  0.02780000  0.96702000  0.78140000  1.0
  H  H312  1  0.00067000  0.95568000  0.74454000  1.0
  H  H313  1  0.15952000  0.17574000  0.66886000  1.0
  H  H314  1  0.14219000  0.18850000  0.70372000  1.0
  H  H315  1  0.24316000  0.23975000  0.71204000  1.0
  H  H316  1  0.20216000  0.24479000  0.70762000  1.0
  H  H317  1  0.22054000  0.23013000  0.67436000  1.0
  H  H318  1  0.86785000  0.10032000  0.30213000  1.0
  H  H319  1  0.85221000  0.03391000  0.30524000  1.0
  H  H320  1  0.89872000  0.04289000  0.21237000  1.0
  H  H321  1  0.91649000  0.10947000  0.21029000  1.0
  H  H322  1  0.76012000  0.91547000  0.25281000  1.0
  H  H323  1  0.90008000  0.98779000  0.24308000  1.0
  H  H324  1  0.74628000  0.87461000  0.20270000  1.0
  H  H325  1  0.70690000  0.80550000  0.19547000  1.0
  H  H326  1  0.78142000  0.78912000  0.25725000  1.0
  H  H327  1  0.81993000  0.85733000  0.26516000  1.0
  H  H328  1  0.88779000  0.91259000  0.24175000  1.0
  H  H329  1  0.85307000  0.88888000  0.21080000  1.0
  H  H330  1  0.93984000  0.94767000  0.16956000  1.0
  H  H331  1  0.90578000  0.89953000  0.17893000  1.0
  H  H332  1  0.94097000  0.93043000  0.20801000  1.0
  H  H333  1  0.78547000  0.99137000  0.28894000  1.0
  H  H334  1  0.80226000  0.01964000  0.25306000  1.0
  H  H335  1  0.70107000  0.97159000  0.24693000  1.0
  H  H336  1  0.74283000  0.01732000  0.24988000  1.0
  H  H337  1  0.72484000  0.98576000  0.28410000  1.0
  H  H338  1  0.86032000  0.77873000  0.30821000  1.0
  H  H339  1  0.92527000  0.83212000  0.31421000  1.0
  H  H340  1  0.92572000  0.86048000  0.21636000  1.0
  H  H341  1  0.86045000  0.80955000  0.21121000  1.0
  H  H342  1  0.04810000  0.85364000  0.26363000  1.0
  H  H343  1  0.97615000  0.92115000  0.24925000  1.0
  H  H344  1  0.08528000  0.87660000  0.21030000  1.0
  H  H345  1  0.15376000  0.90417000  0.20055000  1.0
  H  H346  1  0.17616000  0.99865000  0.26030000  1.0
  H  H347  1  0.10859000  0.97120000  0.27055000  1.0
  H  H348  1  0.04932000  0.98357000  0.24546000  1.0
  H  H349  1  0.07543000  0.97175000  0.21757000  1.0
  H  H350  1  0.01643000  0.99335000  0.16948000  1.0
  H  H351  1  0.06457000  0.00868000  0.17993000  1.0
  H  H352  1  0.03341000  0.01564000  0.20687000  1.0
  H  H353  1  0.99617000  0.79926000  0.28001000  1.0
  H  H354  1  0.96090000  0.80461000  0.30056000  1.0
  H  H355  1  0.90893000  0.73052000  0.24410000  1.0
  H  H356  1  0.90911000  0.74463000  0.28407000  1.0
  H  H357  1  0.94664000  0.73632000  0.26926000  1.0
  H  H358  1  0.96988000  0.18474000  0.25395000  1.0
  H  H359  1  0.99839000  0.14551000  0.26390000  1.0
  H  H360  1  0.09243000  0.21823000  0.20364000  1.0
  H  H361  1  0.06403000  0.25847000  0.19453000  1.0
  H  H362  1  0.04872000  0.06443000  0.24616000  1.0
  H  H363  1  0.11679000  0.20450000  0.25503000  1.0
  H  H364  1  0.10634000  0.06541000  0.21764000  1.0
  H  H365  1  0.15629000  0.04921000  0.21729000  1.0
  H  H366  1  0.19218000  0.09850000  0.30942000  1.0
  H  H367  1  0.14021000  0.11247000  0.31080000  1.0
  H  H368  1  0.16577000  0.17899000  0.29355000  1.0
  H  H369  1  0.17823000  0.16190000  0.25835000  1.0
  H  H370  1  0.23205000  0.26302000  0.25196000  1.0
  H  H371  1  0.23561000  0.22109000  0.25572000  1.0
  H  H372  1  0.22123000  0.23938000  0.28923000  1.0
  H  H373  1  0.98630000  0.07697000  0.24192000  1.0
  H  H374  1  0.99856000  0.11176000  0.21084000  1.0
  H  H375  1  0.97205000  0.02494000  0.17012000  1.0
  H  H376  1  0.95766000  0.05903000  0.17836000  1.0
  H  H377  1  0.95229000  0.02388000  0.20794000  1.0
  C  C378  1  0.66234000  0.73456000  0.64041000  1.0
  C  C379  1  0.54432000  0.64140000  0.74265000  1.0
  C  C380  1  0.73807000  0.73258000  0.75072000  1.0
  C  C381  1  0.64417000  0.74435000  0.83174000  1.0
  C  C382  1  0.73945000  0.84362000  0.72178000  1.0
  C  C383  1  0.55866000  0.76110000  0.71160000  1.0
  C  C384  1  0.23645000  0.92975000  0.63676000  1.0
  C  C385  1  0.32881000  0.91635000  0.74391000  1.0
  C  C386  1  0.22418000  0.00611000  0.74417000  1.0
  C  C387  1  0.21781000  0.90442000  0.82848000  1.0
  C  C388  1  0.11908000  0.88829000  0.71208000  1.0
  C  C389  1  0.21722000  0.80590000  0.71174000  1.0
  C  C390  1  0.03688000  0.31370000  0.63017000  1.0
  C  C391  1  0.05755000  0.42287000  0.73704000  1.0
  C  C392  1  0.95770000  0.22865000  0.73874000  1.0
  C  C393  1  0.06344000  0.32051000  0.82187000  1.0
  C  C394  1  0.06969000  0.23174000  0.70552000  1.0
  C  C395  1  0.16473000  0.41133000  0.70291000  1.0
  C  C396  1  0.91359000  0.25052000  0.32329000  1.0
  C  C397  1  0.89618000  0.34151000  0.21648000  1.0
  C  C398  1  0.99649000  0.24713000  0.21808000  1.0
  C  C399  1  0.89481000  0.23581000  0.13087000  1.0
  C  C400  1  0.88170000  0.13698000  0.24609000  1.0
  C  C401  1  0.78916000  0.22497000  0.24617000  1.0
  C  C402  1  0.71849000  0.67323000  0.32906000  1.0
  C  C403  1  0.62745000  0.55675000  0.22331000  1.0
  C  C404  1  0.71936000  0.75094000  0.22130000  1.0
  C  C405  1  0.73261000  0.65806000  0.13811000  1.0
  C  C406  1  0.82976000  0.75061000  0.25062000  1.0
  C  C407  1  0.74637000  0.56967000  0.25719000  1.0
  C  C408  1  0.29953000  0.05244000  0.32940000  1.0
  C  C409  1  0.40508000  0.06815000  0.22047000  1.0
  C  C410  1  0.21086000  0.97140000  0.22388000  1.0
  C  C411  1  0.30179000  0.07387000  0.13738000  1.0
  C  C412  1  0.21739000  0.08567000  0.25415000  1.0
  C  C413  1  0.39788000  0.17744000  0.25326000  1.0
  C  C414  1  0.72061000  0.66309000  0.10636000  1.0
  C  C415  1  0.68766000  0.66567000  0.10243000  1.0
  C  C416  1  0.67755000  0.67254000  0.07267000  1.0
  C  C417  1  0.70025000  0.67710000  0.04633000  1.0
  C  C418  1  0.73255000  0.67347000  0.05003000  1.0
  C  C419  1  0.74271000  0.66665000  0.07975000  1.0
  C  C420  1  0.69063000  0.68650000  0.01514000  1.0
  C  C421  1  0.71380000  0.72210000  0.00061000  1.0
  C  C422  1  0.70399000  0.72902000  0.97063000  1.0
  C  C423  1  0.67097000  0.70188000  0.95521000  1.0
  C  C424  1  0.64682000  0.66697000  0.97042000  1.0
  C  C425  1  0.65732000  0.65955000  0.99998000  1.0
  C  C426  1  0.66229000  0.71141000  0.92364000  1.0
  C  C427  1  0.66084000  0.69044000  0.89689000  1.0
  C  C428  1  0.65409000  0.70057000  0.86708000  1.0
  C  C429  1  0.64908000  0.73212000  0.86342000  1.0
  C  C430  1  0.65038000  0.75294000  0.89026000  1.0
  C  C431  1  0.65699000  0.74272000  0.92003000  1.0
  C  C432  1  0.61041000  0.63690000  0.95559000  1.0
  C  C433  1  0.58535000  0.58641000  0.92100000  1.0
  C  C434  1  0.74940000  0.75276000  0.01606000  1.0
  C  C435  1  0.81274000  0.77330000  0.02478000  1.0
  C  C436  1  0.28789000  0.05419000  0.36188000  1.0
  C  C437  1  0.31249000  0.05794000  0.38651000  1.0
  C  C438  1  0.29868000  0.04670000  0.41708000  1.0
  C  C439  1  0.25984000  0.03089000  0.42352000  1.0
  C  C440  1  0.23548000  0.02897000  0.39922000  1.0
  C  C441  1  0.24948000  0.04080000  0.36863000  1.0
  C  C442  1  0.24461000  0.01234000  0.45449000  1.0
  C  C443  1  0.25657000  0.03251000  0.48327000  1.0
  C  C444  1  0.24690000  0.01208000  0.51176000  1.0
  C  C445  1  0.22474000  0.97235000  0.51231000  1.0
  C  C446  1  0.21058000  0.95246000  0.48373000  1.0
  C  C447  1  0.22073000  0.97273000  0.45517000  1.0
  C  C448  1  0.21981000  0.95254000  0.54284000  1.0
  C  C449  1  0.19808000  0.95564000  0.56711000  1.0
  C  C450  1  0.19945000  0.94321000  0.59764000  1.0
  C  C451  1  0.22292000  0.92795000  0.60434000  1.0
  C  C452  1  0.24287000  0.92289000  0.57966000  1.0
  C  C453  1  0.24112000  0.93482000  0.54913000  1.0
  C  C454  1  0.18579000  0.90983000  0.48331000  1.0
  C  C455  1  0.13274000  0.85970000  0.50580000  1.0
  C  C456  1  0.28175000  0.07519000  0.48420000  1.0
  C  C457  1  0.29585000  0.12968000  0.51163000  1.0
  C  C458  1  0.04724000  0.31617000  0.85388000  1.0
  C  C459  1  0.05877000  0.30101000  0.87839000  1.0
  C  C460  1  0.04284000  0.29591000  0.90845000  1.0
  C  C461  1  0.01587000  0.30695000  0.91498000  1.0
  C  C462  1  0.00430000  0.32206000  0.89041000  1.0
  C  C463  1  0.01965000  0.32641000  0.86015000  1.0
  C  C464  1  0.99855000  0.30116000  0.94699000  1.0
  C  C465  1  0.02057000  0.31409000  0.97489000  1.0
  C  C466  1  0.00218000  0.30330000  0.00430000  1.0
  C  C467  1  0.96244000  0.28288000  0.00679000  1.0
  C  C468  1  0.94041000  0.27386000  0.97890000  1.0
  C  C469  1  0.95880000  0.28166000  0.94950000  1.0
  C  C470  1  0.94503000  0.27094000  0.03872000  1.0
  C  C471  1  0.95607000  0.29735000  0.06348000  1.0
  C  C472  1  0.94005000  0.28598000  0.09352000  1.0
  C  C473  1  0.91232000  0.24808000  0.09932000  1.0
  C  C474  1  0.90155000  0.22164000  0.07468000  1.0
  C  C475  1  0.91815000  0.23282000  0.04490000  1.0
  C  C476  1  0.89753000  0.25480000  0.97959000  1.0
  C  C477  1  0.84475000  0.24952000  0.95448000  1.0
  C  C478  1  0.06344000  0.33807000  0.97420000  1.0
  C  C479  1  0.11608000  0.38574000  0.99932000  1.0
  C  C480  1  0.67904000  0.75025000  0.60946000  1.0
  C  C481  1  0.65578000  0.74900000  0.58461000  1.0
  C  C482  1  0.66729000  0.75002000  0.55331000  1.0
  C  C483  1  0.70215000  0.75212000  0.54643000  1.0
  C  C484  1  0.72629000  0.75576000  0.57143000  1.0
  C  C485  1  0.71488000  0.75494000  0.60259000  1.0
  C  C486  1  0.71071000  0.74474000  0.51390000  1.0
  C  C487  1  0.74465000  0.76974000  0.49773000  1.0
  C  C488  1  0.75221000  0.75885000  0.46834000  1.0
  C  C489  1  0.72627000  0.72425000  0.45415000  1.0
  C  C490  1  0.69133000  0.70038000  0.46949000  1.0
  C  C491  1  0.68454000  0.71052000  0.49938000  1.0
  C  C492  1  0.73453000  0.71526000  0.42213000  1.0
  C  C493  1  0.73523000  0.68158000  0.41614000  1.0
  C  C494  1  0.73451000  0.66938000  0.38510000  1.0
  C  C495  1  0.73391000  0.69113000  0.35974000  1.0
  C  C496  1  0.73695000  0.72647000  0.36580000  1.0
  C  C497  1  0.73741000  0.73851000  0.39669000  1.0
  C  C498  1  0.66093000  0.66383000  0.45498000  1.0
  C  C499  1  0.64189000  0.60058000  0.44764000  1.0
  C  C500  1  0.77346000  0.80772000  0.51113000  1.0
  C  C501  1  0.82758000  0.83833000  0.54151000  1.0
  C  C502  1  0.29650000  0.05681000  0.10564000  1.0
  C  C503  1  0.28060000  0.06767000  0.08126000  1.0
  C  C504  1  0.27494000  0.05120000  0.05139000  1.0
  C  C505  1  0.28618000  0.02437000  0.04489000  1.0
  C  C506  1  0.30189000  0.01336000  0.06938000  1.0
  C  C507  1  0.30676000  0.02921000  0.09949000  1.0
  C  C508  1  0.28032000  0.00691000  0.01295000  1.0
  C  C509  1  0.29289000  0.02886000  0.98499000  1.0
  C  C510  1  0.28217000  0.01034000  0.95566000  1.0
  C  C511  1  0.26232000  0.97058000  0.95324000  1.0
  C  C512  1  0.25367000  0.94869000  0.98119000  1.0
  C  C513  1  0.26128000  0.96717000  0.01054000  1.0
  C  C514  1  0.25096000  0.95311000  0.92128000  1.0
  C  C515  1  0.27764000  0.96504000  0.89669000  1.0
  C  C516  1  0.26686000  0.94940000  0.86651000  1.0
  C  C517  1  0.22929000  0.92110000  0.86035000  1.0
  C  C518  1  0.20257000  0.90921000  0.88485000  1.0
  C  C519  1  0.21314000  0.92548000  0.91481000  1.0
  C  C520  1  0.23528000  0.90585000  0.98059000  1.0
  C  C521  1  0.23108000  0.85359000  0.00581000  1.0
  C  C522  1  0.31647000  0.07177000  0.98555000  1.0
  C  C523  1  0.36355000  0.12460000  0.96018000  1.0
  C  C524  1  0.03811000  0.30189000  0.59763000  1.0
  C  C525  1  0.04092000  0.32610000  0.57298000  1.0
  C  C526  1  0.02978000  0.31206000  0.54246000  1.0
  C  C527  1  0.01497000  0.27333000  0.53608000  1.0
  C  C528  1  0.01387000  0.24937000  0.56041000  1.0
  C  C529  1  0.02565000  0.26364000  0.59096000  1.0
  C  C530  1  0.99667000  0.25774000  0.50509000  1.0
  C  C531  1  0.01686000  0.27015000  0.47635000  1.0
  C  C532  1  0.99650000  0.26023000  0.44782000  1.0
  C  C533  1  0.95683000  0.23739000  0.44719000  1.0
  C  C534  1  0.93699000  0.22271000  0.47573000  1.0
  C  C535  1  0.95719000  0.23312000  0.50433000  1.0
  C  C536  1  0.93693000  0.23255000  0.41671000  1.0
  C  C537  1  0.94077000  0.21179000  0.39198000  1.0
  C  C538  1  0.92819000  0.21346000  0.36157000  1.0
  C  C539  1  0.91211000  0.23634000  0.35544000  1.0
  C  C540  1  0.90633000  0.25526000  0.38056000  1.0
  C  C541  1  0.91837000  0.25318000  0.41096000  1.0
  C  C542  1  0.89445000  0.19717000  0.47609000  1.0
  C  C543  1  0.84499000  0.14394000  0.45319000  1.0
  C  C544  1  0.05943000  0.29610000  0.47551000  1.0
  C  C545  1  0.11434000  0.31148000  0.44820000  1.0
  C  C546  1  0.50256000  0.62272000  0.74102000  1.0
  C  C547  1  0.48357000  0.64062000  0.75363000  1.0
  C  C548  1  0.44484000  0.62591000  0.74804000  1.0
  C  C549  1  0.42468000  0.59320000  0.72969000  1.0
  C  C550  1  0.44315000  0.57439000  0.71820000  1.0
  C  C551  1  0.48178000  0.58899000  0.72382000  1.0
  C  C552  1  0.38406000  0.57788000  0.72278000  1.0
  C  C553  1  0.37153000  0.58228000  0.69291000  1.0
  C  C554  1  0.33262000  0.56188000  0.68592000  1.0
  C  C555  1  0.30608000  0.53780000  0.70825000  1.0
  C  C556  1  0.31865000  0.53441000  0.73866000  1.0
  C  C557  1  0.35759000  0.55559000  0.74568000  1.0
  C  C558  1  0.26641000  0.51236000  0.69806000  1.0
  C  C559  1  0.25904000  0.48388000  0.67597000  1.0
  C  C560  1  0.22267000  0.45245000  0.67337000  1.0
  C  C561  1  0.19323000  0.44937000  0.69255000  1.0
  C  C562  1  0.19944000  0.48031000  0.71129000  1.0
  C  C563  1  0.23593000  0.51173000  0.71409000  1.0
  C  C564  1  0.29105000  0.50829000  0.76348000  1.0
  C  C565  1  0.28410000  0.47683000  0.81046000  1.0
  C  C566  1  0.39922000  0.60649000  0.66774000  1.0
  C  C567  1  0.44274000  0.60865000  0.63177000  1.0
  C  C568  1  0.34999000  0.89563000  0.74236000  1.0
  C  C569  1  0.33380000  0.85837000  0.75391000  1.0
  C  C570  1  0.35098000  0.83657000  0.74801000  1.0
  C  C571  1  0.38445000  0.85162000  0.73018000  1.0
  C  C572  1  0.40153000  0.88942000  0.71989000  1.0
  C  C573  1  0.38452000  0.91123000  0.72595000  1.0
  C  C574  1  0.40260000  0.82869000  0.72286000  1.0
  C  C575  1  0.38429000  0.79443000  0.70528000  1.0
  C  C576  1  0.40405000  0.77485000  0.69910000  1.0
  C  C577  1  0.44178000  0.78960000  0.70866000  1.0
  C  C578  1  0.45979000  0.82358000  0.72635000  1.0
  C  C579  1  0.44008000  0.84277000  0.73291000  1.0
  C  C580  1  0.46268000  0.76981000  0.70016000  1.0
  C  C581  1  0.49121000  0.78569000  0.67720000  1.0
  C  C582  1  0.52058000  0.77731000  0.67713000  1.0
  C  C583  1  0.52145000  0.75272000  0.69980000  1.0
  C  C584  1  0.49008000  0.73283000  0.71975000  1.0
  C  C585  1  0.46076000  0.74135000  0.71996000  1.0
  C  C586  1  0.50048000  0.84098000  0.73725000  1.0
  C  C587  1  0.56280000  0.87774000  0.72146000  1.0
  C  C588  1  0.34390000  0.77772000  0.69356000  1.0
  C  C589  1  0.30189000  0.74146000  0.65446000  1.0
  C  C590  1  0.07974000  0.46472000  0.73563000  1.0
  C  C591  1  0.11607000  0.48475000  0.74913000  1.0
  C  C592  1  0.13926000  0.52369000  0.74365000  1.0
  C  C593  1  0.12646000  0.54307000  0.72443000  1.0
  C  C594  1  0.08957000  0.52335000  0.71207000  1.0
  C  C595  1  0.06641000  0.48461000  0.71767000  1.0
  C  C596  1  0.15042000  0.58428000  0.71823000  1.0
  C  C597  1  0.18586000  0.60040000  0.70241000  1.0
  C  C598  1  0.20631000  0.63991000  0.69724000  1.0
  C  C599  1  0.19132000  0.66294000  0.70596000  1.0
  C  C600  1  0.15604000  0.64678000  0.72175000  1.0
  C  C601  1  0.13604000  0.60771000  0.72744000  1.0
  C  C602  1  0.21229000  0.70389000  0.69869000  1.0
  C  C603  1  0.19925000  0.71783000  0.67444000  1.0
  C  C604  1  0.20741000  0.75550000  0.67506000  1.0
  C  C605  1  0.22868000  0.77939000  0.69988000  1.0
  C  C606  1  0.24646000  0.76693000  0.72122000  1.0
  C  C607  1  0.23826000  0.72924000  0.72067000  1.0
  C  C608  1  0.13800000  0.66998000  0.73120000  1.0
  C  C609  1  0.10126000  0.69465000  0.71320000  1.0
  C  C610  1  0.20300000  0.57689000  0.69138000  1.0
  C  C611  1  0.24077000  0.57199000  0.65316000  1.0
  C  C612  1  0.87307000  0.36027000  0.21738000  1.0
  C  C613  1  0.88575000  0.39426000  0.23416000  1.0
  C  C614  1  0.86146000  0.40871000  0.23938000  1.0
  C  C615  1  0.82423000  0.38954000  0.22781000  1.0
  C  C616  1  0.81185000  0.35635000  0.21010000  1.0
  C  C617  1  0.83620000  0.34197000  0.20476000  1.0
  C  C618  1  0.79840000  0.40434000  0.23454000  1.0
  C  C619  1  0.79204000  0.42648000  0.21242000  1.0
  C  C620  1  0.77172000  0.44428000  0.22191000  1.0
  C  C621  1  0.75697000  0.43988000  0.25249000  1.0
  C  C622  1  0.76062000  0.41515000  0.27373000  1.0
  C  C623  1  0.78207000  0.39831000  0.26461000  1.0
  C  C624  1  0.74372000  0.46625000  0.26244000  1.0
  C  C625  1  0.71552000  0.46857000  0.24519000  1.0
  C  C626  1  0.71183000  0.50086000  0.24748000  1.0
  C  C627  1  0.73643000  0.53122000  0.26680000  1.0
  C  C628  1  0.76170000  0.52704000  0.28654000  1.0
  C  C629  1  0.76521000  0.49468000  0.28451000  1.0
  C  C630  1  0.74450000  0.40861000  0.30669000  1.0
  C  C631  1  0.71453000  0.36401000  0.34584000  1.0
  C  C632  1  0.81044000  0.43576000  0.18022000  1.0
  C  C633  1  0.80209000  0.44561000  0.12801000  1.0
  C  C634  1  0.60840000  0.51489000  0.22339000  1.0
  C  C635  1  0.57556000  0.49351000  0.24151000  1.0
  C  C636  1  0.56108000  0.45464000  0.24584000  1.0
  C  C637  1  0.57893000  0.43644000  0.23189000  1.0
  C  C638  1  0.61083000  0.45736000  0.21278000  1.0
  C  C639  1  0.62534000  0.49628000  0.20844000  1.0
  C  C640  1  0.56405000  0.39557000  0.23776000  1.0
  C  C641  1  0.54389000  0.36800000  0.21446000  1.0
  C  C642  1  0.52678000  0.32945000  0.22240000  1.0
  C  C643  1  0.52856000  0.31779000  0.25319000  1.0
  C  C644  1  0.55103000  0.34537000  0.27592000  1.0
  C  C645  1  0.56785000  0.38403000  0.26801000  1.0
  C  C646  1  0.50150000  0.27775000  0.26165000  1.0
  C  C647  1  0.49957000  0.24784000  0.24368000  1.0
  C  C648  1  0.46704000  0.21187000  0.24473000  1.0
  C  C649  1  0.43614000  0.20552000  0.26361000  1.0
  C  C650  1  0.43983000  0.23421000  0.28403000  1.0
  C  C651  1  0.47230000  0.27003000  0.28314000  1.0
  C  C652  1  0.55565000  0.33462000  0.30901000  1.0
  C  C653  1  0.59797000  0.34826000  0.34987000  1.0
  C  C654  1  0.53953000  0.37897000  0.18141000  1.0
  C  C655  1  0.57176000  0.40408000  0.13490000  1.0
  C  C656  1  0.76092000  0.23487000  0.25649000  1.0
  C  C657  1  0.73589000  0.21305000  0.28051000  1.0
  C  C658  1  0.69851000  0.20578000  0.28038000  1.0
  C  C659  1  0.68594000  0.22036000  0.25624000  1.0
  C  C660  1  0.71226000  0.24611000  0.23468000  1.0
  C  C661  1  0.74959000  0.25326000  0.23480000  1.0
  C  C662  1  0.64519000  0.20048000  0.24824000  1.0
  C  C663  1  0.62159000  0.21610000  0.25349000  1.0
  C  C664  1  0.58294000  0.19468000  0.24538000  1.0
  C  C665  1  0.56777000  0.15830000  0.23200000  1.0
  C  C666  1  0.59224000  0.14402000  0.22466000  1.0
  C  C667  1  0.63031000  0.16481000  0.23395000  1.0
  C  C668  1  0.52617000  0.13482000  0.22767000  1.0
  C  C669  1  0.50622000  0.14769000  0.20929000  1.0
  C  C670  1  0.46686000  0.12524000  0.20572000  1.0
  C  C671  1  0.44693000  0.08968000  0.22055000  1.0
  C  C672  1  0.46711000  0.07667000  0.23847000  1.0
  C  C673  1  0.50623000  0.09920000  0.24230000  1.0
  C  C674  1  0.57840000  0.10632000  0.20815000  1.0
  C  C675  1  0.59441000  0.07321000  0.17309000  1.0
  C  C676  1  0.63731000  0.25553000  0.26671000  1.0
  C  C677  1  0.67886000  0.31844000  0.25473000  1.0
  C  C678  1  0.77875000  0.87026000  0.71322000  1.0
  C  C679  1  0.78599000  0.88902000  0.68421000  1.0
  C  C680  1  0.81475000  0.92700000  0.68186000  1.0
  C  C681  1  0.83553000  0.94637000  0.70878000  1.0
  C  C682  1  0.83239000  0.92558000  0.73604000  1.0
  C  C683  1  0.80417000  0.88763000  0.73819000  1.0
  C  C684  1  0.85430000  0.98827000  0.71112000  1.0
  C  C685  1  0.83364000  0.00763000  0.70712000  1.0
  C  C686  1  0.85240000  0.04705000  0.71177000  1.0
  C  C687  1  0.88953000  0.06692000  0.72345000  1.0
  C  C688  1  0.90916000  0.04705000  0.72978000  1.0
  C  C689  1  0.89176000  0.00833000  0.72217000  1.0
  C  C690  1  0.90689000  0.10841000  0.72811000  1.0
  C  C691  1  0.88851000  0.12343000  0.74626000  1.0
  C  C692  1  0.90454000  0.16276000  0.74967000  1.0
  C  C693  1  0.93927000  0.18730000  0.73526000  1.0
  C  C694  1  0.95708000  0.17225000  0.71668000  1.0
  C  C695  1  0.94094000  0.13325000  0.71289000  1.0
  C  C696  1  0.94806000  0.06554000  0.74485000  1.0
  C  C697  1  0.98511000  0.05668000  0.78127000  1.0
  C  C698  1  0.79207000  0.98709000  0.69765000  1.0
  C  C699  1  0.73621000  0.98891000  0.69727000  1.0
  C  C700  1  0.09087000  0.89950000  0.70532000  1.0
  C  C701  1  0.08269000  0.91780000  0.72946000  1.0
  C  C702  1  0.04599000  0.91173000  0.73294000  1.0
  C  C703  1  0.01735000  0.88805000  0.71190000  1.0
  C  C704  1  0.02676000  0.87372000  0.68550000  1.0
  C  C705  1  0.06336000  0.87922000  0.68235000  1.0
  C  C706  1  0.97723000  0.87037000  0.72167000  1.0
  C  C707  1  0.95049000  0.87670000  0.70572000  1.0
  C  C708  1  0.91185000  0.85432000  0.71343000  1.0
  C  C709  1  0.89979000  0.82654000  0.73709000  1.0
  C  C710  1  0.92691000  0.82221000  0.75452000  1.0
  C  C711  1  0.96526000  0.84385000  0.74627000  1.0
  C  C712  1  0.85872000  0.80165000  0.74257000  1.0
  C  C713  1  0.84063000  0.76332000  0.73365000  1.0
  C  C714  1  0.80153000  0.74001000  0.73789000  1.0
  C  C715  1  0.77996000  0.75479000  0.75102000  1.0
  C  C716  1  0.79848000  0.79293000  0.76082000  1.0
  C  C717  1  0.83749000  0.81622000  0.75644000  1.0
  C  C718  1  0.91561000  0.79335000  0.78059000  1.0
  C  C719  1  0.89266000  0.72980000  0.79070000  1.0
  C  C720  1  0.96222000  0.90542000  0.67956000  1.0
  C  C721  1  0.97784000  0.91554000  0.62687000  1.0
  C  C722  1  0.05621000  0.19227000  0.69705000  1.0
  C  C723  1  0.07093000  0.18476000  0.66992000  1.0
  C  C724  1  0.07810000  0.15453000  0.66967000  1.0
  C  C725  1  0.07175000  0.13268000  0.69700000  1.0
  C  C726  1  0.05152000  0.13663000  0.72200000  1.0
  C  C727  1  0.04343000  0.16608000  0.72187000  1.0
  C  C728  1  0.09268000  0.11210000  0.70266000  1.0
  C  C729  1  0.13294000  0.13141000  0.70289000  1.0
  C  C730  1  0.15125000  0.11096000  0.71031000  1.0
  C  C731  1  0.13106000  0.07335000  0.72097000  1.0
  C  C732  1  0.09092000  0.05491000  0.72303000  1.0
  C  C733  1  0.07232000  0.07411000  0.71236000  1.0
  C  C734  1  0.15325000  0.05463000  0.72922000  1.0
  C  C735  1  0.18516000  0.07292000  0.74911000  1.0
  C  C736  1  0.20847000  0.05726000  0.75432000  1.0
  C  C737  1  0.19972000  0.02278000  0.74020000  1.0
  C  C738  1  0.16781000  0.00442000  0.72059000  1.0
  C  C739  1  0.14496000  0.02030000  0.71492000  1.0
  C  C740  1  0.06715000  0.01525000  0.73627000  1.0
  C  C741  1  0.01278000  0.97589000  0.76457000  1.0
  C  C742  1  0.15675000  0.17332000  0.69496000  1.0
  C  C743  1  0.21523000  0.22768000  0.70018000  1.0
  C  C744  1  0.89304000  0.10965000  0.25587000  1.0
  C  C745  1  0.87720000  0.08877000  0.28347000  1.0
  C  C746  1  0.86757000  0.05060000  0.28494000  1.0
  C  C747  1  0.87262000  0.03298000  0.25838000  1.0
  C  C748  1  0.89400000  0.05562000  0.23298000  1.0
  C  C749  1  0.90446000  0.09386000  0.23189000  1.0
  C  C750  1  0.85036000  0.99115000  0.25421000  1.0
  C  C751  1  0.81007000  0.97095000  0.25535000  1.0
  C  C752  1  0.79062000  0.93166000  0.24976000  1.0
  C  C753  1  0.80961000  0.91279000  0.23963000  1.0
  C  C754  1  0.84958000  0.93368000  0.23586000  1.0
  C  C755  1  0.86941000  0.97209000  0.24474000  1.0
  C  C756  1  0.78669000  0.87129000  0.23391000  1.0
  C  C757  1  0.75421000  0.85606000  0.21457000  1.0
  C  C758  1  0.73173000  0.81674000  0.21042000  1.0
  C  C759  1  0.74181000  0.79231000  0.22522000  1.0
  C  C760  1  0.77387000  0.80751000  0.24479000  1.0
  C  C761  1  0.79586000  0.84652000  0.24937000  1.0
  C  C762  1  0.87209000  0.91671000  0.22206000  1.0
  C  C763  1  0.92179000  0.92878000  0.18871000  1.0
  C  C764  1  0.78738000  0.99036000  0.26284000  1.0
  C  C765  1  0.72939000  0.98742000  0.25819000  1.0
  C  C766  1  0.85591000  0.79004000  0.25916000  1.0
  C  C767  1  0.87351000  0.79813000  0.28873000  1.0
  C  C768  1  0.91089000  0.82802000  0.29190000  1.0
  C  C769  1  0.93097000  0.84882000  0.26524000  1.0
  C  C770  1  0.91109000  0.84448000  0.23716000  1.0
  C  C771  1  0.87362000  0.81541000  0.23424000  1.0
  C  C772  1  0.97303000  0.86917000  0.26399000  1.0
  C  C773  1  0.99351000  0.84963000  0.26780000  1.0
  C  C774  1  0.03225000  0.86829000  0.26037000  1.0
  C  C775  1  0.05084000  0.90510000  0.24794000  1.0
  C  C776  1  0.03024000  0.92435000  0.24338000  1.0
  C  C777  1  0.99201000  0.90655000  0.25265000  1.0
  C  C778  1  0.09177000  0.92237000  0.24057000  1.0
  C  C779  1  0.10504000  0.90345000  0.22110000  1.0
  C  C780  1  0.14397000  0.91904000  0.21554000  1.0
  C  C781  1  0.16985000  0.95390000  0.22907000  1.0
  C  C782  1  0.15657000  0.97241000  0.24877000  1.0
  C  C783  1  0.11798000  0.95667000  0.25474000  1.0
  C  C784  1  0.04685000  0.96262000  0.22737000  1.0
  C  C785  1  0.03527000  0.99629000  0.18944000  1.0
  C  C786  1  0.97457000  0.80824000  0.27720000  1.0
  C  C787  1  0.92759000  0.74781000  0.26365000  1.0
  C  C788  1  0.01451000  0.22406000  0.22302000  1.0
  C  C789  1  0.99631000  0.19196000  0.24245000  1.0
  C  C790  1  0.01260000  0.16954000  0.24815000  1.0
  C  C791  1  0.04706000  0.17825000  0.23389000  1.0
  C  C792  1  0.06554000  0.21067000  0.21458000  1.0
  C  C793  1  0.04947000  0.23364000  0.20937000  1.0
  C  C794  1  0.06502000  0.15510000  0.24101000  1.0
  C  C795  1  0.04581000  0.11509000  0.23752000  1.0
  C  C796  1  0.06378000  0.09512000  0.24766000  1.0
  C  C797  1  0.10149000  0.11408000  0.25818000  1.0
  C  C798  1  0.12180000  0.15439000  0.25902000  1.0
  C  C799  1  0.10242000  0.17397000  0.25219000  1.0
  C  C800  1  0.12072000  0.09175000  0.26364000  1.0
  C  C801  1  0.12320000  0.07052000  0.23869000  1.0
  C  C802  1  0.15166000  0.06098000  0.23859000  1.0
  C  C803  1  0.17825000  0.07323000  0.26311000  1.0
  C  C804  1  0.17181000  0.08862000  0.29034000  1.0
  C  C805  1  0.14256000  0.09724000  0.29084000  1.0
  C  C806  1  0.16366000  0.17695000  0.26741000  1.0
  C  C807  1  0.21908000  0.23473000  0.26333000  1.0
  C  C808  1  0.00690000  0.09270000  0.22269000  1.0
  C  C809  1  0.97051000  0.04303000  0.18891000  1.0
  N  N810  1  0.65565000  0.70002000  0.64906000  1.0
  N  N811  1  0.64664000  0.69748000  0.67901000  1.0
  N  N812  1  0.64806000  0.72912000  0.68880000  1.0
  N  N813  1  0.65847000  0.75363000  0.66507000  1.0
  N  N814  1  0.56665000  0.67850000  0.74943000  1.0
  N  N815  1  0.60107000  0.68633000  0.74105000  1.0
  N  N816  1  0.60005000  0.65560000  0.72994000  1.0
  N  N817  1  0.56482000  0.62689000  0.73004000  1.0
  N  N818  1  0.71749000  0.69870000  0.73618000  1.0
  N  N819  1  0.68301000  0.69413000  0.73393000  1.0
  N  N820  1  0.68273000  0.72403000  0.74551000  1.0
  N  N821  1  0.71661000  0.74849000  0.75652000  1.0
  N  N822  1  0.64392000  0.77688000  0.82603000  1.0
  N  N823  1  0.64203000  0.77813000  0.79504000  1.0
  N  N824  1  0.64137000  0.74833000  0.78227000  1.0
  N  N825  1  0.64285000  0.72640000  0.80458000  1.0
  N  N826  1  0.71977000  0.80595000  0.71576000  1.0
  N  N827  1  0.68704000  0.79439000  0.73055000  1.0
  N  N828  1  0.68719000  0.82347000  0.74451000  1.0
  N  N829  1  0.71959000  0.85476000  0.73968000  1.0
  N  N830  1  0.57834000  0.79047000  0.73112000  1.0
  N  N831  1  0.60751000  0.78707000  0.73968000  1.0
  N  N832  1  0.60609000  0.75713000  0.72621000  1.0
  N  N833  1  0.57518000  0.73947000  0.70840000  1.0
  N  N834  1  0.26945000  0.95941000  0.64630000  1.0
  N  N835  1  0.27006000  0.95456000  0.67685000  1.0
  N  N836  1  0.23899000  0.92333000  0.68598000  1.0
  N  N837  1  0.21647000  0.90719000  0.66132000  1.0
  N  N838  1  0.29124000  0.89912000  0.74965000  1.0
  N  N839  1  0.28116000  0.92392000  0.74068000  1.0
  N  N840  1  0.31106000  0.95495000  0.73025000  1.0
  N  N841  1  0.34141000  0.95110000  0.73136000  1.0
  N  N842  1  0.25945000  0.02173000  0.73192000  1.0
  N  N843  1  0.26660000  0.99339000  0.73077000  1.0
  N  N844  1  0.23693000  0.96192000  0.74097000  1.0
  N  N845  1  0.20976000  0.96881000  0.74943000  1.0
  N  N846  1  0.18628000  0.87092000  0.82224000  1.0
  N  N847  1  0.18648000  0.86778000  0.79127000  1.0
  N  N848  1  0.21611000  0.89763000  0.77906000  1.0
  N  N849  1  0.23664000  0.92141000  0.80172000  1.0
  N  N850  1  0.15714000  0.91049000  0.70920000  1.0
  N  N851  1  0.17077000  0.89168000  0.72484000  1.0
  N  N852  1  0.14249000  0.86040000  0.73698000  1.0
  N  N853  1  0.10974000  0.85739000  0.72964000  1.0
  N  N854  1  0.18703000  0.79379000  0.73080000  1.0
  N  N855  1  0.18643000  0.82482000  0.73816000  1.0
  N  N856  1  0.21475000  0.85468000  0.72440000  1.0
  N  N857  1  0.23521000  0.84395000  0.70745000  1.0
  N  N858  1  0.00871000  0.31950000  0.63970000  1.0
  N  N859  1  0.01378000  0.32481000  0.67025000  1.0
  N  N860  1  0.04379000  0.32265000  0.67937000  1.0
  N  N861  1  0.05878000  0.31477000  0.65473000  1.0
  N  N862  1  0.07324000  0.40102000  0.74246000  1.0
  N  N863  1  0.04698000  0.36658000  0.73364000  1.0
  N  N864  1  0.01670000  0.36724000  0.72353000  1.0
  N  N865  1  0.02242000  0.40213000  0.72480000  1.0
  N  N866  1  0.94394000  0.24968000  0.72588000  1.0
  N  N867  1  0.97367000  0.28440000  0.72443000  1.0
  N  N868  1  0.00415000  0.28440000  0.73495000  1.0
  N  N869  1  0.99520000  0.24994000  0.74404000  1.0
  N  N870  1  0.09562000  0.31989000  0.81535000  1.0
  N  N871  1  0.09855000  0.32292000  0.78437000  1.0
  N  N872  1  0.06973000  0.32486000  0.77237000  1.0
  N  N873  1  0.04694000  0.32349000  0.79522000  1.0
  N  N874  1  0.05058000  0.25077000  0.70203000  1.0
  N  N875  1  0.07110000  0.28245000  0.71829000  1.0
  N  N876  1  0.10057000  0.28218000  0.73102000  1.0
  N  N877  1  0.10058000  0.25084000  0.72371000  1.0
  N  N878  1  0.17474000  0.39087000  0.72121000  1.0
  N  N879  1  0.14232000  0.36151000  0.72975000  1.0
  N  N880  1  0.11357000  0.36346000  0.71728000  1.0
  N  N881  1  0.12652000  0.39506000  0.70048000  1.0
  N  N882  1  0.94185000  0.28488000  0.31466000  1.0
  N  N883  1  0.93769000  0.28606000  0.28407000  1.0
  N  N884  1  0.90818000  0.25405000  0.27403000  1.0
  N  N885  1  0.89263000  0.23034000  0.29811000  1.0
  N  N886  1  0.88140000  0.30430000  0.21012000  1.0
  N  N887  1  0.90743000  0.29620000  0.21969000  1.0
  N  N888  1  0.93689000  0.32694000  0.23104000  1.0
  N  N889  1  0.93069000  0.35586000  0.22999000  1.0
  N  N890  1  0.00967000  0.28180000  0.23101000  1.0
  N  N891  1  0.98002000  0.28696000  0.23111000  1.0
  N  N892  1  0.95005000  0.25662000  0.21973000  1.0
  N  N893  1  0.95932000  0.23108000  0.21144000  1.0
  N  N894  1  0.86201000  0.20324000  0.13635000  1.0
  N  N895  1  0.85771000  0.20267000  0.16720000  1.0
  N  N896  1  0.88631000  0.23284000  0.18015000  1.0
  N  N897  1  0.91033000  0.25453000  0.15804000  1.0
  N  N898  1  0.90109000  0.17498000  0.25070000  1.0
  N  N899  1  0.88183000  0.18726000  0.23395000  1.0
  N  N900  1  0.85268000  0.15825000  0.22010000  1.0
  N  N901  1  0.85177000  0.12636000  0.22699000  1.0
  N  N902  1  0.77939000  0.19521000  0.22704000  1.0
  N  N903  1  0.81180000  0.19723000  0.22008000  1.0
  N  N904  1  0.84024000  0.22670000  0.23414000  1.0
  N  N905  1  0.82714000  0.24535000  0.25076000  1.0
  N  N906  1  0.68398000  0.66612000  0.31988000  1.0
  N  N907  1  0.68197000  0.65693000  0.29000000  1.0
  N  N908  1  0.71392000  0.65863000  0.28077000  1.0
  N  N909  1  0.73811000  0.66953000  0.30477000  1.0
  N  N910  1  0.66486000  0.57920000  0.21768000  1.0
  N  N911  1  0.67260000  0.61325000  0.22715000  1.0
  N  N912  1  0.64155000  0.61191000  0.23776000  1.0
  N  N913  1  0.61267000  0.57680000  0.23631000  1.0
  N  N914  1  0.68461000  0.72942000  0.23408000  1.0
  N  N915  1  0.68007000  0.69487000  0.23537000  1.0
  N  N916  1  0.71084000  0.69541000  0.22487000  1.0
  N  N917  1  0.73603000  0.73009000  0.21592000  1.0
  N  N918  1  0.76508000  0.65778000  0.14411000  1.0
  N  N919  1  0.76583000  0.65549000  0.17511000  1.0
  N  N920  1  0.73583000  0.65471000  0.18759000  1.0
  N  N921  1  0.71422000  0.65638000  0.16508000  1.0
  N  N922  1  0.79198000  0.73068000  0.25616000  1.0
  N  N923  1  0.78063000  0.69850000  0.24060000  1.0
  N  N924  1  0.80997000  0.69912000  0.22668000  1.0
  N  N925  1  0.84116000  0.73137000  0.23221000  1.0
  N  N926  1  0.77670000  0.59024000  0.23877000  1.0
  N  N927  1  0.77351000  0.61960000  0.23041000  1.0
  N  N928  1  0.74283000  0.61752000  0.24301000  1.0
  N  N929  1  0.72433000  0.58583000  0.25974000  1.0
  N  N930  1  0.30472000  0.02379000  0.32019000  1.0
  N  N931  1  0.30953000  0.02814000  0.28956000  1.0
  N  N932  1  0.30761000  0.05817000  0.28006000  1.0
  N  N933  1  0.30038000  0.07389000  0.30456000  1.0
  N  N934  1  0.38356000  0.08421000  0.21519000  1.0
  N  N935  1  0.34934000  0.05875000  0.22507000  1.0
  N  N936  1  0.34977000  0.02852000  0.23563000  1.0
  N  N937  1  0.38435000  0.03353000  0.23365000  1.0
  N  N938  1  0.23196000  0.95753000  0.23638000  1.0
  N  N939  1  0.26697000  0.98684000  0.23660000  1.0
  N  N940  1  0.26715000  0.01727000  0.22569000  1.0
  N  N941  1  0.23245000  0.00864000  0.21759000  1.0
  N  N942  1  0.30218000  0.10666000  0.14341000  1.0
  N  N943  1  0.30604000  0.11042000  0.17431000  1.0
  N  N944  1  0.30751000  0.08152000  0.18671000  1.0
  N  N945  1  0.30501000  0.05785000  0.16422000  1.0
  N  N946  1  0.23589000  0.06607000  0.25794000  1.0
  N  N947  1  0.26741000  0.08572000  0.24130000  1.0
  N  N948  1  0.26762000  0.11524000  0.22813000  1.0
  N  N949  1  0.23669000  0.11605000  0.23547000  1.0
  N  N950  1  0.37758000  0.18770000  0.23499000  1.0
  N  N951  1  0.34727000  0.15545000  0.22754000  1.0
  N  N952  1  0.34852000  0.12661000  0.24061000  1.0
  N  N953  1  0.38052000  0.13930000  0.25684000  1.0
  O  O954  1  0.78007000  0.74745000  0.00789000  1.0
  O  O955  1  0.61823000  0.61247000  0.93753000  1.0
  O  O956  1  0.27052000  0.09029000  0.50926000  1.0
  O  O957  1  0.15312000  0.89942000  0.50175000  1.0
  O  O958  1  0.07606000  0.36530000  0.99864000  1.0
  O  O959  1  0.88477000  0.26931000  0.95517000  1.0
  O  O960  1  0.80204000  0.80386000  0.52665000  1.0
  O  O961  1  0.66748000  0.63409000  0.46370000  1.0
  O  O962  1  0.34351000  0.08458000  0.96095000  1.0
  O  O963  1  0.25019000  0.89361000  0.00508000  1.0
  O  O964  1  0.07509000  0.28550000  0.45045000  1.0
  O  O965  1  0.88469000  0.16499000  0.45718000  1.0
  O  O966  1  0.41309000  0.58506000  0.65241000  1.0
  O  O967  1  0.30993000  0.49881000  0.78663000  1.0
  O  O968  1  0.34043000  0.76166000  0.66336000  1.0
  O  O969  1  0.52462000  0.86319000  0.71255000  1.0
  O  O970  1  0.21965000  0.58960000  0.66136000  1.0
  O  O971  1  0.11783000  0.67253000  0.70514000  1.0
  O  O972  1  0.78404000  0.43366000  0.15752000  1.0
  O  O973  1  0.72971000  0.37016000  0.31516000  1.0
  O  O974  1  0.57289000  0.38855000  0.16429000  1.0
  O  O975  1  0.59387000  0.35724000  0.31858000  1.0
  O  O976  1  0.65521000  0.28197000  0.24210000  1.0
  O  O977  1  0.60629000  0.10904000  0.18675000  1.0
  O  O978  1  0.77406000  0.00720000  0.70807000  1.0
  O  O979  1  0.94806000  0.04192000  0.76928000  1.0
  O  O980  1  0.96328000  0.88813000  0.65105000  1.0
  O  O981  1  0.90766000  0.75827000  0.76738000  1.0
  O  O982  1  0.19285000  0.18941000  0.70943000  1.0
  O  O983  1  0.03682000  0.01331000  0.75404000  1.0
  O  O984  1  0.75080000  0.97038000  0.24920000  1.0
  O  O985  1  0.89723000  0.94166000  0.19897000  1.0
  O  O986  1  0.94823000  0.78595000  0.25368000  1.0
  O  O987  1  0.02254000  0.96005000  0.20252000  1.0
  O  O988  1  0.00757000  0.06762000  0.19998000  1.0
  O  O989  1  0.18088000  0.21348000  0.25360000  1.0
