# generated using pymatgen
data_Zn8H30C119N7O58
_symmetry_space_group_name_H-M   'P 1'
_cell_length_a   29.50890000
_cell_length_b   29.60080000
_cell_length_c   32.43330000
_cell_angle_alpha   81.94800000
_cell_angle_beta   87.31700000
_cell_angle_gamma   89.94900000
_symmetry_Int_Tables_number   1
_chemical_formula_structural   Zn8H30C119N7O58
_chemical_formula_sum   'Zn32 H120 C476 N28 O232'
_cell_volume   28019.56233900
_cell_formula_units_Z   4
loop_
 _symmetry_equiv_pos_site_id
 _symmetry_equiv_pos_as_xyz
  1  'x, y, z'
loop_
 _atom_site_type_symbol
 _atom_site_label
 _atom_site_symmetry_multiplicity
 _atom_site_fract_x
 _atom_site_fract_y
 _atom_site_fract_z
 _atom_site_occupancy
  Zn  Zn0  1  0.78799000  0.62671000  0.99123000  1.0
  Zn  Zn1  1  0.74536000  0.67777000  0.05198000  1.0
  Zn  Zn2  1  0.83987000  0.64901000  0.04948000  1.0
  Zn  Zn3  1  0.81466000  0.72390000  0.99415000  1.0
  Zn  Zn4  1  0.27501000  0.82033000  0.08998000  1.0
  Zn  Zn5  1  0.24190000  0.74479000  0.05013000  1.0
  Zn  Zn6  1  0.33179000  0.79237000  0.03256000  1.0
  Zn  Zn7  1  0.32084000  0.73011000  0.10475000  1.0
  Zn  Zn8  1  0.19322000  0.30626000  0.03170000  1.0
  Zn  Zn9  1  0.19536000  0.21471000  0.08661000  1.0
  Zn  Zn10  1  0.12044000  0.28170000  0.08308000  1.0
  Zn  Zn11  1  0.13156000  0.23324000  0.01970000  1.0
  Zn  Zn12  1  0.62144000  0.19693000  0.06997000  1.0
  Zn  Zn13  1  0.69335000  0.18274000  0.12763000  1.0
  Zn  Zn14  1  0.61265000  0.12660000  0.13102000  1.0
  Zn  Zn15  1  0.68003000  0.11830000  0.07069000  1.0
  Zn  Zn16  1  0.75179000  0.33318000  0.61540000  1.0
  Zn  Zn17  1  0.71188000  0.26247000  0.57503000  1.0
  Zn  Zn18  1  0.80454000  0.30262000  0.55461000  1.0
  Zn  Zn19  1  0.79225000  0.23860000  0.62203000  1.0
  Zn  Zn20  1  0.64595000  0.75234000  0.55777000  1.0
  Zn  Zn21  1  0.73059000  0.75585000  0.50302000  1.0
  Zn  Zn22  1  0.65351000  0.81898000  0.49280000  1.0
  Zn  Zn23  1  0.71196000  0.82440000  0.55675000  1.0
  Zn  Zn24  1  0.12865000  0.69820000  0.54315000  1.0
  Zn  Zn25  1  0.21689000  0.68488000  0.59050000  1.0
  Zn  Zn26  1  0.14265000  0.62408000  0.59834000  1.0
  Zn  Zn27  1  0.19874000  0.63990000  0.52549000  1.0
  Zn  Zn28  1  0.25921000  0.09891000  0.54901000  1.0
  Zn  Zn29  1  0.22456000  0.16531000  0.59773000  1.0
  Zn  Zn30  1  0.31488000  0.12259000  0.60493000  1.0
  Zn  Zn31  1  0.30385000  0.18865000  0.53768000  1.0
  H  H32  1  0.67398000  0.68783000  0.09184000  1.0
  H  H33  1  0.17291000  0.70994000  0.02524000  1.0
  H  H34  1  0.24975000  0.15781000  0.11799000  1.0
  H  H35  1  0.75402000  0.22376000  0.15543000  1.0
  H  H36  1  0.63636000  0.23540000  0.55332000  1.0
  H  H37  1  0.79505000  0.71247000  0.47298000  1.0
  H  H38  1  0.28090000  0.72171000  0.61715000  1.0
  H  H39  1  0.15172000  0.18896000  0.62414000  1.0
  H  H40  1  0.85192000  0.68961000  0.23020000  1.0
  H  H41  1  0.86319000  0.70564000  0.30019000  1.0
  H  H42  1  0.64739000  0.78182000  0.31311000  1.0
  H  H43  1  0.63666000  0.76587000  0.24319000  1.0
  H  H44  1  0.17262000  0.82642000  0.35797000  1.0
  H  H45  1  0.20910000  0.84872000  0.28957000  1.0
  H  H46  1  0.25620000  0.62729000  0.27651000  1.0
  H  H47  1  0.21816000  0.60543000  0.34388000  1.0
  H  H48  1  0.35245000  0.20767000  0.25302000  1.0
  H  H49  1  0.36880000  0.19578000  0.32622000  1.0
  H  H50  1  0.14824000  0.14147000  0.37533000  1.0
  H  H51  1  0.13127000  0.15871000  0.30241000  1.0
  H  H52  1  0.76265000  0.32636000  0.29217000  1.0
  H  H53  1  0.75812000  0.33259000  0.36579000  1.0
  H  H54  1  0.59206000  0.17213000  0.39498000  1.0
  H  H55  1  0.59631000  0.16690000  0.32112000  1.0
  H  H56  1  0.29657000  0.19518000  0.79066000  1.0
  H  H57  1  0.29142000  0.21727000  0.86001000  1.0
  H  H58  1  0.09114000  0.32078000  0.81672000  1.0
  H  H59  1  0.09731000  0.29967000  0.74746000  1.0
  H  H60  1  0.62834000  0.30088000  0.87772000  1.0
  H  H61  1  0.65315000  0.32581000  0.80591000  1.0
  H  H62  1  0.80980000  0.15800000  0.81857000  1.0
  H  H63  1  0.78362000  0.13245000  0.88967000  1.0
  H  H64  1  0.66645000  0.64618000  0.74630000  1.0
  H  H65  1  0.69838000  0.62387000  0.81328000  1.0
  H  H66  1  0.79678000  0.83206000  0.80054000  1.0
  H  H67  1  0.76443000  0.85402000  0.73355000  1.0
  H  H68  1  0.34415000  0.72992000  0.78105000  1.0
  H  H69  1  0.33739000  0.73942000  0.85387000  1.0
  H  H70  1  0.11513000  0.68181000  0.85877000  1.0
  H  H71  1  0.12251000  0.67185000  0.78599000  1.0
  H  H72  1  0.77295000  0.94473000  0.15216000  1.0
  H  H73  1  0.80052000  0.88057000  0.11959000  1.0
  H  H74  1  0.59083000  0.85054000  0.05073000  1.0
  H  H75  1  0.56413000  0.91560000  0.08262000  1.0
  H  H76  1  0.98155000  0.86105000  0.98855000  1.0
  H  H77  1  0.05804000  0.88501000  0.99924000  1.0
  H  H78  1  0.05658000  0.74197000  0.18169000  1.0
  H  H79  1  0.97963000  0.71933000  0.17120000  1.0
  H  H80  1  0.32845000  0.07245000  0.01381000  1.0
  H  H81  1  0.35467000  0.00093000  0.99361000  1.0
  H  H82  1  0.13955000  0.94820000  0.95258000  1.0
  H  H83  1  0.11497000  0.02323000  0.96628000  1.0
  H  H84  1  0.89010000  0.06466000  0.03623000  1.0
  H  H85  1  0.96702000  0.09378000  0.02488000  1.0
  H  H86  1  0.94500000  0.18732000  0.20377000  1.0
  H  H87  1  0.86913000  0.15564000  0.21593000  1.0
  H  H88  1  0.61308000  0.08709000  0.53957000  1.0
  H  H89  1  0.60601000  0.02523000  0.49881000  1.0
  H  H90  1  0.83352000  0.99423000  0.50028000  1.0
  H  H91  1  0.84009000  0.05575000  0.54148000  1.0
  H  H92  1  0.92996000  0.85722000  0.60753000  1.0
  H  H93  1  0.00387000  0.83410000  0.63252000  1.0
  H  H94  1  0.93755000  0.61279000  0.65411000  1.0
  H  H95  1  0.86486000  0.63625000  0.62698000  1.0
  H  H96  1  0.11794000  0.96756000  0.64763000  1.0
  H  H97  1  0.09874000  0.90419000  0.61137000  1.0
  H  H98  1  0.32230000  0.85745000  0.58620000  1.0
  H  H99  1  0.34076000  0.91786000  0.62591000  1.0
  H  H100  1  0.07020000  0.19015000  0.46118000  1.0
  H  H101  1  0.99623000  0.22588000  0.46245000  1.0
  H  H102  1  0.94830000  0.10810000  0.65401000  1.0
  H  H103  1  0.02329000  0.07536000  0.65364000  1.0
  H  H104  1  0.30880000  0.47065000  0.50944000  1.0
  H  H105  1  0.30199000  0.39690000  0.48635000  1.0
  H  H106  1  0.12984000  0.34203000  0.63048000  1.0
  H  H107  1  0.13633000  0.41638000  0.65274000  1.0
  H  H108  1  0.48082000  0.18183000  0.71051000  1.0
  H  H109  1  0.55331000  0.21593000  0.72074000  1.0
  H  H110  1  0.51768000  0.38247000  0.56024000  1.0
  H  H111  1  0.44662000  0.34650000  0.54862000  1.0
  H  H112  1  0.59328000  0.53060000  0.54924000  1.0
  H  H113  1  0.60230000  0.45486000  0.52936000  1.0
  H  H114  1  0.82299000  0.50220000  0.47277000  1.0
  H  H115  1  0.81381000  0.57716000  0.49302000  1.0
  H  H116  1  0.37044000  0.78853000  0.43695000  1.0
  H  H117  1  0.44974000  0.80838000  0.42080000  1.0
  H  H118  1  0.51066000  0.60713000  0.52958000  1.0
  H  H119  1  0.43225000  0.59246000  0.55313000  1.0
  H  H120  1  0.11386000  0.56694000  0.10874000  1.0
  H  H121  1  0.09298000  0.48712000  0.11715000  1.0
  H  H122  1  0.31179000  0.42951000  0.15068000  1.0
  H  H123  1  0.33162000  0.50946000  0.14535000  1.0
  H  H124  1  0.42474000  0.13437000  0.18052000  1.0
  H  H125  1  0.35941000  0.14473000  0.13765000  1.0
  H  H126  1  0.41841000  0.36554000  0.07751000  1.0
  H  H127  1  0.49099000  0.35111000  0.11010000  1.0
  H  H128  1  0.62245000  0.41267000  0.10357000  1.0
  H  H129  1  0.65082000  0.48559000  0.11701000  1.0
  H  H130  1  0.86547000  0.41892000  0.07353000  1.0
  H  H131  1  0.83712000  0.34444000  0.06446000  1.0
  H  H132  1  0.50889000  0.73337000  0.92698000  1.0
  H  H133  1  0.58469000  0.70406000  0.91684000  1.0
  H  H134  1  0.55483000  0.55866000  0.09681000  1.0
  H  H135  1  0.47981000  0.58917000  0.10726000  1.0
  H  H136  1  0.04734000  0.58644000  0.01265000  1.0
  H  H137  1  0.10388000  0.52682000  0.01924000  1.0
  H  H138  1  0.95147000  0.37953000  0.96178000  1.0
  H  H139  1  0.89592000  0.44000000  0.95348000  1.0
  H  H140  1  0.51345000  0.91465000  0.01374000  1.0
  H  H141  1  0.55820000  0.98409000  0.00176000  1.0
  H  H142  1  0.38913000  0.09495000  0.09299000  1.0
  H  H143  1  0.34517000  0.02506000  0.10602000  1.0
  H  H144  1  0.84286000  0.54764000  0.58629000  1.0
  H  H145  1  0.89809000  0.60848000  0.56547000  1.0
  H  H146  1  0.05698000  0.45200000  0.53050000  1.0
  H  H147  1  0.00203000  0.39176000  0.55108000  1.0
  H  H148  1  0.51372000  0.04919000  0.57812000  1.0
  H  H149  1  0.56968000  0.98957000  0.58790000  1.0
  H  H150  1  0.41835000  0.83941000  0.53312000  1.0
  H  H151  1  0.36246000  0.89974000  0.52350000  1.0
  C  C152  1  0.69469000  0.61829000  0.01309000  1.0
  C  C153  1  0.72370000  0.69525000  0.13268000  1.0
  C  C154  1  0.88338000  0.72876000  0.04798000  1.0
  C  C155  1  0.88074000  0.59777000  0.99147000  1.0
  C  C156  1  0.79236000  0.69483000  0.91688000  1.0
  C  C157  1  0.79295000  0.57086000  0.07081000  1.0
  C  C158  1  0.74106000  0.76986000  0.02838000  1.0
  C  C159  1  0.18225000  0.80959000  0.08312000  1.0
  C  C160  1  0.21493000  0.72428000  0.97299000  1.0
  C  C161  1  0.39078000  0.72189000  0.04408000  1.0
  C  C162  1  0.36023000  0.86435000  0.07500000  1.0
  C  C163  1  0.28742000  0.77113000  0.17289000  1.0
  C  C164  1  0.27466000  0.85663000  0.00143000  1.0
  C  C165  1  0.25692000  0.65851000  0.09995000  1.0
  C  C166  1  0.27633000  0.26708000  0.05922000  1.0
  C  C167  1  0.22158000  0.18681000  0.16683000  1.0
  C  C168  1  0.06107000  0.21363000  0.08060000  1.0
  C  C169  1  0.10854000  0.35430000  0.02014000  1.0
  C  C170  1  0.17236000  0.28616000  0.95205000  1.0
  C  C171  1  0.17839000  0.34294000  0.10838000  1.0
  C  C172  1  0.18135000  0.15078000  0.03001000  1.0
  C  C173  1  0.68825000  0.26452000  0.07694000  1.0
  C  C174  1  0.70081000  0.22414000  0.19866000  1.0
  C  C175  1  0.64426000  0.04525000  0.12464000  1.0
  C  C176  1  0.55516000  0.12869000  0.06480000  1.0
  C  C177  1  0.66853000  0.17894000  0.99415000  1.0
  C  C178  1  0.56728000  0.20371000  0.14504000  1.0
  C  C179  1  0.75874000  0.11600000  0.11846000  1.0
  C  C180  1  0.65719000  0.31770000  0.62371000  1.0
  C  C181  1  0.67331000  0.25531000  0.49877000  1.0
  C  C182  1  0.86508000  0.23661000  0.57039000  1.0
  C  C183  1  0.83791000  0.37636000  0.59194000  1.0
  C  C184  1  0.76442000  0.27322000  0.69560000  1.0
  C  C185  1  0.74190000  0.36389000  0.52682000  1.0
  C  C186  1  0.73776000  0.17124000  0.59371000  1.0
  C  C187  1  0.68914000  0.67182000  0.53613000  1.0
  C  C188  1  0.76638000  0.74934000  0.42289000  1.0
  C  C189  1  0.70451000  0.89386000  0.48764000  1.0
  C  C190  1  0.58772000  0.82978000  0.55488000  1.0
  C  C191  1  0.67720000  0.77895000  0.63232000  1.0
  C  C192  1  0.59692000  0.74891000  0.48363000  1.0
  C  C193  1  0.79653000  0.77922000  0.55833000  1.0
  C  C194  1  0.18487000  0.77307000  0.55833000  1.0
  C  C195  1  0.24276000  0.69637000  0.66995000  1.0
  C  C196  1  0.20696000  0.56083000  0.58680000  1.0
  C  C197  1  0.07244000  0.61712000  0.54600000  1.0
  C  C198  1  0.15455000  0.68254000  0.46064000  1.0
  C  C199  1  0.08668000  0.68903000  0.62516000  1.0
  C  C200  1  0.28385000  0.67004000  0.53306000  1.0
  C  C201  1  0.16615000  0.10790000  0.56879000  1.0
  C  C202  1  0.19582000  0.20193000  0.66852000  1.0
  C  C203  1  0.36776000  0.19857000  0.59906000  1.0
  C  C204  1  0.34930000  0.06179000  0.55369000  1.0
  C  C205  1  0.28351000  0.14621000  0.46705000  1.0
  C  C206  1  0.25731000  0.05086000  0.63217000  1.0
  C  C207  1  0.22911000  0.24823000  0.54446000  1.0
  C  C208  1  0.83036000  0.71299000  0.28727000  1.0
  C  C209  1  0.79492000  0.73049000  0.31083000  1.0
  C  C210  1  0.80030000  0.73736000  0.35253000  1.0
  C  C211  1  0.76362000  0.75265000  0.37665000  1.0
  C  C212  1  0.72254000  0.76456000  0.35738000  1.0
  C  C213  1  0.71698000  0.75800000  0.31558000  1.0
  C  C214  1  0.67557000  0.76766000  0.29662000  1.0
  C  C215  1  0.66940000  0.75837000  0.25625000  1.0
  C  C216  1  0.70441000  0.73896000  0.23357000  1.0
  C  C217  1  0.69791000  0.72785000  0.19341000  1.0
  C  C218  1  0.74637000  0.73029000  0.25155000  1.0
  C  C219  1  0.75287000  0.73988000  0.29261000  1.0
  C  C220  1  0.77384000  0.70051000  0.18858000  1.0
  C  C221  1  0.78164000  0.71156000  0.22875000  1.0
  C  C222  1  0.82383000  0.70364000  0.24689000  1.0
  C  C223  1  0.20826000  0.81283000  0.30215000  1.0
  C  C224  1  0.22814000  0.78009000  0.27947000  1.0
  C  C225  1  0.24955000  0.79269000  0.23941000  1.0
  C  C226  1  0.26940000  0.75928000  0.21714000  1.0
  C  C227  1  0.26738000  0.71298000  0.23555000  1.0
  C  C228  1  0.24547000  0.70014000  0.27508000  1.0
  C  C229  1  0.24193000  0.65401000  0.29270000  1.0
  C  C230  1  0.21981000  0.64137000  0.33156000  1.0
  C  C231  1  0.20100000  0.67449000  0.35437000  1.0
  C  C232  1  0.18008000  0.66216000  0.39438000  1.0
  C  C233  1  0.20400000  0.72069000  0.33715000  1.0
  C  C234  1  0.22597000  0.73370000  0.29721000  1.0
  C  C235  1  0.16492000  0.74018000  0.40023000  1.0
  C  C236  1  0.18482000  0.75378000  0.35970000  1.0
  C  C237  1  0.18705000  0.79991000  0.34161000  1.0
  C  C238  1  0.33421000  0.19095000  0.31782000  1.0
  C  C239  1  0.29988000  0.17706000  0.34849000  1.0
  C  C240  1  0.30932000  0.16885000  0.39131000  1.0
  C  C241  1  0.27493000  0.15288000  0.42146000  1.0
  C  C242  1  0.23074000  0.14582000  0.40823000  1.0
  C  C243  1  0.22043000  0.15634000  0.36592000  1.0
  C  C244  1  0.17586000  0.15232000  0.35297000  1.0
  C  C245  1  0.16600000  0.16239000  0.31091000  1.0
  C  C246  1  0.20059000  0.17565000  0.28034000  1.0
  C  C247  1  0.19195000  0.18295000  0.23726000  1.0
  C  C248  1  0.24534000  0.17987000  0.29301000  1.0
  C  C249  1  0.25519000  0.17128000  0.33588000  1.0
  C  C250  1  0.27070000  0.19701000  0.22037000  1.0
  C  C251  1  0.28041000  0.19213000  0.26282000  1.0
  C  C252  1  0.32472000  0.19798000  0.27561000  1.0
  C  C253  1  0.73570000  0.30860000  0.35447000  1.0
  C  C254  1  0.70538000  0.28113000  0.38189000  1.0
  C  C255  1  0.70378000  0.28332000  0.42518000  1.0
  C  C256  1  0.67370000  0.25501000  0.45254000  1.0
  C  C257  1  0.64431000  0.22518000  0.43557000  1.0
  C  C258  1  0.64548000  0.22315000  0.39234000  1.0
  C  C259  1  0.61653000  0.19354000  0.37533000  1.0
  C  C260  1  0.61891000  0.19055000  0.33268000  1.0
  C  C261  1  0.65059000  0.21680000  0.30571000  1.0
  C  C262  1  0.65555000  0.21204000  0.26293000  1.0
  C  C263  1  0.67911000  0.24720000  0.32222000  1.0
  C  C264  1  0.67649000  0.25067000  0.36552000  1.0
  C  C265  1  0.71465000  0.26801000  0.25322000  1.0
  C  C266  1  0.71057000  0.27386000  0.29556000  1.0
  C  C267  1  0.73823000  0.30506000  0.31197000  1.0
  C  C268  1  0.26431000  0.22726000  0.83928000  1.0
  C  C269  1  0.22659000  0.25156000  0.85260000  1.0
  C  C270  1  0.22173000  0.26215000  0.89378000  1.0
  C  C271  1  0.18229000  0.28422000  0.90705000  1.0
  C  C272  1  0.14910000  0.29825000  0.87829000  1.0
  C  C273  1  0.15399000  0.28857000  0.83700000  1.0
  C  C274  1  0.12063000  0.30163000  0.80828000  1.0
  C  C275  1  0.12423000  0.28941000  0.76832000  1.0
  C  C276  1  0.16107000  0.26331000  0.75602000  1.0
  C  C277  1  0.16352000  0.24856000  0.71665000  1.0
  C  C278  1  0.19544000  0.25117000  0.78381000  1.0
  C  C279  1  0.19222000  0.26411000  0.82441000  1.0
  C  C280  1  0.23365000  0.21089000  0.73143000  1.0
  C  C281  1  0.23263000  0.22568000  0.77124000  1.0
  C  C282  1  0.26727000  0.21450000  0.79926000  1.0
  C  C283  1  0.67004000  0.29690000  0.82277000  1.0
  C  C284  1  0.70537000  0.27439000  0.80341000  1.0
  C  C285  1  0.71933000  0.28795000  0.76108000  1.0
  C  C286  1  0.75421000  0.26423000  0.74183000  1.0
  C  C287  1  0.77625000  0.22801000  0.76621000  1.0
  C  C288  1  0.76203000  0.21389000  0.80818000  1.0
  C  C289  1  0.78232000  0.17647000  0.83183000  1.0
  C  C290  1  0.76712000  0.16165000  0.87288000  1.0
  C  C291  1  0.73138000  0.18404000  0.89182000  1.0
  C  C292  1  0.71579000  0.16936000  0.93339000  1.0
  C  C293  1  0.71125000  0.22194000  0.86883000  1.0
  C  C294  1  0.72631000  0.23685000  0.82677000  1.0
  C  C295  1  0.66155000  0.22948000  0.92960000  1.0
  C  C296  1  0.67594000  0.24474000  0.88771000  1.0
  C  C297  1  0.65565000  0.28241000  0.86423000  1.0
  C  C298  1  0.70572000  0.65791000  0.79733000  1.0
  C  C299  1  0.73310000  0.68828000  0.81503000  1.0
  C  C300  1  0.75141000  0.67554000  0.85439000  1.0
  C  C301  1  0.77798000  0.70669000  0.87272000  1.0
  C  C302  1  0.78695000  0.75048000  0.84996000  1.0
  C  C303  1  0.76861000  0.76339000  0.81052000  1.0
  C  C304  1  0.77627000  0.80721000  0.78820000  1.0
  C  C305  1  0.75745000  0.81994000  0.74955000  1.0
  C  C306  1  0.73053000  0.78917000  0.73178000  1.0
  C  C307  1  0.71227000  0.80115000  0.69221000  1.0
  C  C308  1  0.72258000  0.74532000  0.75369000  1.0
  C  C309  1  0.74150000  0.73231000  0.79313000  1.0
  C  C310  1  0.67783000  0.72764000  0.69674000  1.0
  C  C311  1  0.69549000  0.71454000  0.73635000  1.0
  C  C312  1  0.68714000  0.67085000  0.75869000  1.0
  C  C313  1  0.30742000  0.72936000  0.83928000  1.0
  C  C314  1  0.26567000  0.72224000  0.86197000  1.0
  C  C315  1  0.26148000  0.72785000  0.90459000  1.0
  C  C316  1  0.21939000  0.72031000  0.92722000  1.0
  C  C317  1  0.18134000  0.70749000  0.90606000  1.0
  C  C318  1  0.18545000  0.70151000  0.86361000  1.0
  C  C319  1  0.14803000  0.68801000  0.84273000  1.0
  C  C320  1  0.15228000  0.68217000  0.80069000  1.0
  C  C321  1  0.19404000  0.68991000  0.77806000  1.0
  C  C322  1  0.19865000  0.68543000  0.73514000  1.0
  C  C323  1  0.23171000  0.70331000  0.79862000  1.0
  C  C324  1  0.22761000  0.70899000  0.84148000  1.0
  C  C325  1  0.27689000  0.70618000  0.73376000  1.0
  C  C326  1  0.27354000  0.71099000  0.77643000  1.0
  C  C327  1  0.31132000  0.72377000  0.79723000  1.0
  C  C328  1  0.76522000  0.89002000  0.11659000  1.0
  C  C329  1  0.73644000  0.86685000  0.09311000  1.0
  C  C330  1  0.75292000  0.83171000  0.07166000  1.0
  C  C331  1  0.72368000  0.80886000  0.04807000  1.0
  C  C332  1  0.67737000  0.82019000  0.04732000  1.0
  C  C333  1  0.66062000  0.85576000  0.06829000  1.0
  C  C334  1  0.61477000  0.86858000  0.06690000  1.0
  C  C335  1  0.59936000  0.90601000  0.08522000  1.0
  C  C336  1  0.62939000  0.93157000  0.10523000  1.0
  C  C337  1  0.61654000  0.97335000  0.11795000  1.0
  C  C338  1  0.67453000  0.91711000  0.10964000  1.0
  C  C339  1  0.69043000  0.87952000  0.09072000  1.0
  C  C340  1  0.68941000  0.98245000  0.14464000  1.0
  C  C341  1  0.70435000  0.94159000  0.13117000  1.0
  C  C342  1  0.74932000  0.92682000  0.13554000  1.0
  C  C343  1  0.04156000  0.86000000  0.02276000  1.0
  C  C344  1  0.06485000  0.83944000  0.05722000  1.0
  C  C345  1  0.11157000  0.84642000  0.05981000  1.0
  C  C346  1  0.13499000  0.82083000  0.09161000  1.0
  C  C347  1  0.11125000  0.79445000  0.12501000  1.0
  C  C348  1  0.06439000  0.78752000  0.12315000  1.0
  C  C349  1  0.04049000  0.75735000  0.15383000  1.0
  C  C350  1  0.99623000  0.74428000  0.14772000  1.0
  C  C351  1  0.97520000  0.76071000  0.11057000  1.0
  C  C352  1  0.93391000  0.74238000  0.10068000  1.0
  C  C353  1  0.99733000  0.79395000  0.08142000  1.0
  C  C354  1  0.04182000  0.80789000  0.08782000  1.0
  C  C355  1  0.93500000  0.79183000  0.03588000  1.0
  C  C356  1  0.97603000  0.81145000  0.04479000  1.0
  C  C357  1  0.99757000  0.84615000  0.01660000  1.0
  C  C358  1  0.31896000  0.00897000  0.99141000  1.0
  C  C359  1  0.28793000  0.97751000  0.97998000  1.0
  C  C360  1  0.30127000  0.93283000  0.97575000  1.0
  C  C361  1  0.26800000  0.89936000  0.97383000  1.0
  C  C362  1  0.22348000  0.91250000  0.96466000  1.0
  C  C363  1  0.20994000  0.95793000  0.96621000  1.0
  C  C364  1  0.16459000  0.97142000  0.96133000  1.0
  C  C365  1  0.15041000  0.01450000  0.96947000  1.0
  C  C366  1  0.18098000  0.04462000  0.98378000  1.0
  C  C367  1  0.16658000  0.08619000  0.99639000  1.0
  C  C368  1  0.22685000  0.03217000  0.98706000  1.0
  C  C369  1  0.24173000  0.98956000  0.97688000  1.0
  C  C370  1  0.24110000  0.10057000  0.01752000  1.0
  C  C371  1  0.25755000  0.06129000  0.00240000  1.0
  C  C372  1  0.30383000  0.05005000  0.00319000  1.0
  C  C373  1  0.94768000  0.10082000  0.05247000  1.0
  C  C374  1  0.96535000  0.12886000  0.07956000  1.0
  C  C375  1  0.00696000  0.15163000  0.07000000  1.0
  C  C376  1  0.02204000  0.18325000  0.09539000  1.0
  C  C377  1  0.99843000  0.18674000  0.13365000  1.0
  C  C378  1  0.95729000  0.16308000  0.14400000  1.0
  C  C379  1  0.93202000  0.16780000  0.18097000  1.0
  C  C380  1  0.88844000  0.14940000  0.18807000  1.0
  C  C381  1  0.86898000  0.12673000  0.15792000  1.0
  C  C382  1  0.82269000  0.11593000  0.16019000  1.0
  C  C383  1  0.89524000  0.11841000  0.12259000  1.0
  C  C384  1  0.93970000  0.13608000  0.11578000  1.0
  C  C385  1  0.82929000  0.08568000  0.09609000  1.0
  C  C386  1  0.87620000  0.09446000  0.09299000  1.0
  C  C387  1  0.90349000  0.08388000  0.05905000  1.0
  C  C388  1  0.63960000  0.03436000  0.50711000  1.0
  C  C389  1  0.67804000  0.00996000  0.49592000  1.0
  C  C390  1  0.67369000  0.97011000  0.47739000  1.0
  C  C391  1  0.71169000  0.94227000  0.47316000  1.0
  C  C392  1  0.75531000  0.95901000  0.47805000  1.0
  C  C393  1  0.76031000  0.99875000  0.49653000  1.0
  C  C394  1  0.80297000  0.01205000  0.50828000  1.0
  C  C395  1  0.80667000  0.04722000  0.53232000  1.0
  C  C396  1  0.76785000  0.07037000  0.54481000  1.0
  C  C397  1  0.77096000  0.10534000  0.56972000  1.0
  C  C398  1  0.72523000  0.05887000  0.53151000  1.0
  C  C399  1  0.72129000  0.02308000  0.50729000  1.0
  C  C400  1  0.69082000  0.11657000  0.56868000  1.0
  C  C401  1  0.68630000  0.08177000  0.54387000  1.0
  C  C402  1  0.64365000  0.06969000  0.53094000  1.0
  C  C403  1  0.97896000  0.80783000  0.63020000  1.0
  C  C404  1  0.98985000  0.76134000  0.63929000  1.0
  C  C405  1  0.03469000  0.74716000  0.64658000  1.0
  C  C406  1  0.04573000  0.70061000  0.64905000  1.0
  C  C407  1  0.01079000  0.66772000  0.65487000  1.0
  C  C408  1  0.96590000  0.68132000  0.64721000  1.0
  C  C409  1  0.93155000  0.64891000  0.64545000  1.0
  C  C410  1  0.88987000  0.66239000  0.62942000  1.0
  C  C411  1  0.88164000  0.70850000  0.61481000  1.0
  C  C412  1  0.84270000  0.72201000  0.59316000  1.0
  C  C413  1  0.91363000  0.74172000  0.62091000  1.0
  C  C414  1  0.95611000  0.72819000  0.63679000  1.0
  C  C415  1  0.86323000  0.80055000  0.58984000  1.0
  C  C416  1  0.90412000  0.78823000  0.60920000  1.0
  C  C417  1  0.93648000  0.82112000  0.61558000  1.0
  C  C418  1  0.13422000  0.91103000  0.61532000  1.0
  C  C419  1  0.16855000  0.88479000  0.59882000  1.0
  C  C420  1  0.15804000  0.84779000  0.57780000  1.0
  C  C421  1  0.19318000  0.82121000  0.56300000  1.0
  C  C422  1  0.23878000  0.83476000  0.56526000  1.0
  C  C423  1  0.24958000  0.86925000  0.58861000  1.0
  C  C424  1  0.29484000  0.87760000  0.59725000  1.0
  C  C425  1  0.30542000  0.91179000  0.62070000  1.0
  C  C426  1  0.27101000  0.93921000  0.63508000  1.0
  C  C427  1  0.28110000  0.97842000  0.65288000  1.0
  C  C428  1  0.22534000  0.93009000  0.62785000  1.0
  C  C429  1  0.21444000  0.89453000  0.60523000  1.0
  C  C430  1  0.20334000  0.99704000  0.65838000  1.0
  C  C431  1  0.19076000  0.95747000  0.64227000  1.0
  C  C432  1  0.14520000  0.94711000  0.63663000  1.0
  C  C433  1  0.00506000  0.20187000  0.48919000  1.0
  C  C434  1  0.97502000  0.19271000  0.52435000  1.0
  C  C435  1  0.93359000  0.21633000  0.52713000  1.0
  C  C436  1  0.90504000  0.20770000  0.56348000  1.0
  C  C437  1  0.91628000  0.17263000  0.59550000  1.0
  C  C438  1  0.95778000  0.14975000  0.59343000  1.0
  C  C439  1  0.97076000  0.11753000  0.62679000  1.0
  C  C440  1  0.01394000  0.09860000  0.62656000  1.0
  C  C441  1  0.04495000  0.11090000  0.59269000  1.0
  C  C442  1  0.09023000  0.09653000  0.59409000  1.0
  C  C443  1  0.03122000  0.14035000  0.55771000  1.0
  C  C444  1  0.98772000  0.16052000  0.55822000  1.0
  C  C445  1  0.10643000  0.13456000  0.52518000  1.0
  C  C446  1  0.06169000  0.15131000  0.52310000  1.0
  C  C447  1  0.04768000  0.18122000  0.48845000  1.0
  C  C448  1  0.27897000  0.40489000  0.51129000  1.0
  C  C449  1  0.24605000  0.37337000  0.53009000  1.0
  C  C450  1  0.24341000  0.32978000  0.51833000  1.0
  C  C451  1  0.21496000  0.29637000  0.54156000  1.0
  C  C452  1  0.18227000  0.30947000  0.57068000  1.0
  C  C453  1  0.18408000  0.35330000  0.58240000  1.0
  C  C454  1  0.15535000  0.36548000  0.61483000  1.0
  C  C455  1  0.15938000  0.40811000  0.62793000  1.0
  C  C456  1  0.19183000  0.43982000  0.60851000  1.0
  C  C457  1  0.19357000  0.48453000  0.61827000  1.0
  C  C458  1  0.22100000  0.42785000  0.57620000  1.0
  C  C459  1  0.21707000  0.38477000  0.56294000  1.0
  C  C460  1  0.25456000  0.50297000  0.56796000  1.0
  C  C461  1  0.25395000  0.45910000  0.55689000  1.0
  C  C462  1  0.28324000  0.44709000  0.52489000  1.0
  C  C463  1  0.53293000  0.23225000  0.69603000  1.0
  C  C464  1  0.54896000  0.27101000  0.66930000  1.0
  C  C465  1  0.59381000  0.28695000  0.67065000  1.0
  C  C466  1  0.61059000  0.32261000  0.64050000  1.0
  C  C467  1  0.58039000  0.34770000  0.61412000  1.0
  C  C468  1  0.53589000  0.33147000  0.61157000  1.0
  C  C469  1  0.50746000  0.35168000  0.58068000  1.0
  C  C470  1  0.46659000  0.33084000  0.57392000  1.0
  C  C471  1  0.45285000  0.28950000  0.59816000  1.0
  C  C472  1  0.41431000  0.26549000  0.58893000  1.0
  C  C473  1  0.47911000  0.27099000  0.63136000  1.0
  C  C474  1  0.52091000  0.29171000  0.63799000  1.0
  C  C475  1  0.42516000  0.20821000  0.64717000  1.0
  C  C476  1  0.46466000  0.23067000  0.65676000  1.0
  C  C477  1  0.49121000  0.21250000  0.69000000  1.0
  C  C478  1  0.63138000  0.47758000  0.52549000  1.0
  C  C479  1  0.67381000  0.46316000  0.51070000  1.0
  C  C480  1  0.68169000  0.41736000  0.50546000  1.0
  C  C481  1  0.72632000  0.40276000  0.49814000  1.0
  C  C482  1  0.76014000  0.43503000  0.48357000  1.0
  C  C483  1  0.75337000  0.48061000  0.48947000  1.0
  C  C484  1  0.78980000  0.51160000  0.48443000  1.0
  C  C485  1  0.78461000  0.55454000  0.49652000  1.0
  C  C486  1  0.74257000  0.56787000  0.51298000  1.0
  C  C487  1  0.73704000  0.61087000  0.52519000  1.0
  C  C488  1  0.70522000  0.53813000  0.51664000  1.0
  C  C489  1  0.71056000  0.49421000  0.50498000  1.0
  C  C490  1  0.65917000  0.59561000  0.54535000  1.0
  C  C491  1  0.66323000  0.55152000  0.53362000  1.0
  C  C492  1  0.62624000  0.52108000  0.53718000  1.0
  C  C493  1  0.44164000  0.77601000  0.43971000  1.0
  C  C494  1  0.47617000  0.74647000  0.45517000  1.0
  C  C495  1  0.52237000  0.75958000  0.45008000  1.0
  C  C496  1  0.55583000  0.72991000  0.46780000  1.0
  C  C497  1  0.54368000  0.68485000  0.48451000  1.0
  C  C498  1  0.49787000  0.67294000  0.49321000  1.0
  C  C499  1  0.48537000  0.63188000  0.51844000  1.0
  C  C500  1  0.44027000  0.62351000  0.53216000  1.0
  C  C501  1  0.40630000  0.65496000  0.51930000  1.0
  C  C502  1  0.36100000  0.64844000  0.53446000  1.0
  C  C503  1  0.41791000  0.69427000  0.49104000  1.0
  C  C504  1  0.46396000  0.70428000  0.47926000  1.0
  C  C505  1  0.33819000  0.71387000  0.48844000  1.0
  C  C506  1  0.38373000  0.72434000  0.47577000  1.0
  C  C507  1  0.39599000  0.76467000  0.44921000  1.0
  C  C508  1  0.12808000  0.49586000  0.12077000  1.0
  C  C509  1  0.16117000  0.46188000  0.12808000  1.0
  C  C510  1  0.15049000  0.41569000  0.12763000  1.0
  C  C511  1  0.18531000  0.38307000  0.12918000  1.0
  C  C512  1  0.22968000  0.39523000  0.13726000  1.0
  C  C513  1  0.24047000  0.44108000  0.13941000  1.0
  C  C514  1  0.28515000  0.45450000  0.14499000  1.0
  C  C515  1  0.29655000  0.50059000  0.14177000  1.0
  C  C516  1  0.26371000  0.53449000  0.13220000  1.0
  C  C517  1  0.27561000  0.58100000  0.12471000  1.0
  C  C518  1  0.21851000  0.52149000  0.12834000  1.0
  C  C519  1  0.20655000  0.47474000  0.13273000  1.0
  C  C520  1  0.19892000  0.60120000  0.11038000  1.0
  C  C521  1  0.18558000  0.55510000  0.11851000  1.0
  C  C522  1  0.14016000  0.54187000  0.11582000  1.0
  C  C523  1  0.38275000  0.17305000  0.13704000  1.0
  C  C524  1  0.37578000  0.21483000  0.11174000  1.0
  C  C525  1  0.34078000  0.21989000  0.08427000  1.0
  C  C526  1  0.32528000  0.26383000  0.06826000  1.0
  C  C527  1  0.35274000  0.30204000  0.07162000  1.0
  C  C528  1  0.39397000  0.29576000  0.09258000  1.0
  C  C529  1  0.42505000  0.33165000  0.09334000  1.0
  C  C530  1  0.46652000  0.32350000  0.11252000  1.0
  C  C531  1  0.47670000  0.27982000  0.13319000  1.0
  C  C532  1  0.52038000  0.26783000  0.14654000  1.0
  C  C533  1  0.44383000  0.24518000  0.13657000  1.0
  C  C534  1  0.40406000  0.25224000  0.11423000  1.0
  C  C535  1  0.49478000  0.19424000  0.17678000  1.0
  C  C536  1  0.45204000  0.20243000  0.16022000  1.0
  C  C537  1  0.41973000  0.16739000  0.16227000  1.0
  C  C538  1  0.67506000  0.46069000  0.10836000  1.0
  C  C539  1  0.72165000  0.47085000  0.10344000  1.0
  C  C540  1  0.73789000  0.51503000  0.10547000  1.0
  C  C541  1  0.78336000  0.52597000  0.09418000  1.0
  C  C542  1  0.81470000  0.49143000  0.08854000  1.0
  C  C543  1  0.79927000  0.44676000  0.08754000  1.0
  C  C544  1  0.82928000  0.41255000  0.07779000  1.0
  C  C545  1  0.81290000  0.36982000  0.07221000  1.0
  C  C546  1  0.76607000  0.36042000  0.07585000  1.0
  C  C547  1  0.74894000  0.31780000  0.06978000  1.0
  C  C548  1  0.73571000  0.39407000  0.08628000  1.0
  C  C549  1  0.75228000  0.43705000  0.09299000  1.0
  C  C550  1  0.67288000  0.34287000  0.08068000  1.0
  C  C551  1  0.68875000  0.38533000  0.08881000  1.0
  C  C552  1  0.65873000  0.41873000  0.10048000  1.0
  C  C553  1  0.56446000  0.68969000  0.94428000  1.0
  C  C554  1  0.58235000  0.65632000  0.97424000  1.0
  C  C555  1  0.62836000  0.64362000  0.97178000  1.0
  C  C556  1  0.64643000  0.61377000  0.00457000  1.0
  C  C557  1  0.61722000  0.59128000  0.03634000  1.0
  C  C558  1  0.57140000  0.60378000  0.03929000  1.0
  C  C559  1  0.54308000  0.58540000  0.07353000  1.0
  C  C560  1  0.49990000  0.60307000  0.07958000  1.0
  C  C561  1  0.48393000  0.63942000  0.05143000  1.0
  C  C562  1  0.44262000  0.66085000  0.05942000  1.0
  C  C563  1  0.51052000  0.65569000  0.01537000  1.0
  C  C564  1  0.55448000  0.63797000  0.00919000  1.0
  C  C565  1  0.45199000  0.71110000  0.99520000  1.0
  C  C566  1  0.49400000  0.69093000  0.98639000  1.0
  C  C567  1  0.52081000  0.70666000  0.95020000  1.0
  C  C568  1  0.07063000  0.51867000  0.00941000  1.0
  C  C569  1  0.06015000  0.47429000  0.00185000  1.0
  C  C570  1  0.09198000  0.43844000  0.00839000  1.0
  C  C571  1  0.07980000  0.39350000  0.00338000  1.0
  C  C572  1  0.03653000  0.38524000  0.98905000  1.0
  C  C573  1  0.00486000  0.42101000  0.98153000  1.0
  C  C574  1  0.96130000  0.41306000  0.96807000  1.0
  C  C575  1  0.92922000  0.44801000  0.96327000  1.0
  C  C576  1  0.93948000  0.49196000  0.97221000  1.0
  C  C577  1  0.90631000  0.52674000  0.97051000  1.0
  C  C578  1  0.98325000  0.50065000  0.98478000  1.0
  C  C579  1  0.01628000  0.46538000  0.98899000  1.0
  C  C580  1  0.95952000  0.57787000  0.99269000  1.0
  C  C581  1  0.99376000  0.54431000  0.99395000  1.0
  C  C582  1  0.03796000  0.55309000  0.00558000  1.0
  C  C583  1  0.52485000  0.98515000  0.01704000  1.0
  C  C584  1  0.50849000  0.02539000  0.03072000  1.0
  C  C585  1  0.53621000  0.06462000  0.02799000  1.0
  C  C586  1  0.52092000  0.10305000  0.04567000  1.0
  C  C587  1  0.47564000  0.10448000  0.06105000  1.0
  C  C588  1  0.44754000  0.06542000  0.06400000  1.0
  C  C589  1  0.40373000  0.06458000  0.08303000  1.0
  C  C590  1  0.37846000  0.02414000  0.09061000  1.0
  C  C591  1  0.39601000  0.98333000  0.07886000  1.0
  C  C592  1  0.37126000  0.94194000  0.08708000  1.0
  C  C593  1  0.43879000  0.98420000  0.05784000  1.0
  C  C594  1  0.46471000  0.02520000  0.05033000  1.0
  C  C595  1  0.43074000  0.90311000  0.05425000  1.0
  C  C596  1  0.45631000  0.94385000  0.04540000  1.0
  C  C597  1  0.49912000  0.94502000  0.02422000  1.0
  C  C598  1  0.90908000  0.57360000  0.56581000  1.0
  C  C599  1  0.95443000  0.56398000  0.55476000  1.0
  C  C600  1  0.98828000  0.59884000  0.54689000  1.0
  C  C601  1  0.03380000  0.58770000  0.53722000  1.0
  C  C602  1  0.04415000  0.54224000  0.53170000  1.0
  C  C603  1  0.01127000  0.50730000  0.54093000  1.0
  C  C604  1  0.02294000  0.46141000  0.53990000  1.0
  C  C605  1  0.99126000  0.42661000  0.55203000  1.0
  C  C606  1  0.94667000  0.43656000  0.56507000  1.0
  C  C607  1  0.91446000  0.40151000  0.57727000  1.0
  C  C608  1  0.93407000  0.48228000  0.56544000  1.0
  C  C609  1  0.96652000  0.51795000  0.55347000  1.0
  C  C610  1  0.85775000  0.45590000  0.59033000  1.0
  C  C611  1  0.88939000  0.49224000  0.57830000  1.0
  C  C612  1  0.87718000  0.53841000  0.57764000  1.0
  C  C613  1  0.53626000  0.98074000  0.57893000  1.0
  C  C614  1  0.52575000  0.93598000  0.57271000  1.0
  C  C615  1  0.55897000  0.90164000  0.57638000  1.0
  C  C616  1  0.54918000  0.85770000  0.56721000  1.0
  C  C617  1  0.50492000  0.84735000  0.55656000  1.0
  C  C618  1  0.47116000  0.88156000  0.55293000  1.0
  C  C619  1  0.42761000  0.87301000  0.53968000  1.0
  C  C620  1  0.39537000  0.90784000  0.53407000  1.0
  C  C621  1  0.40543000  0.95226000  0.54193000  1.0
  C  C622  1  0.37266000  0.98755000  0.53816000  1.0
  C  C623  1  0.44899000  0.96131000  0.55482000  1.0
  C  C624  1  0.48186000  0.92612000  0.56051000  1.0
  C  C625  1  0.42707000  0.04015000  0.55614000  1.0
  C  C626  1  0.46014000  0.00582000  0.56117000  1.0
  C  C627  1  0.50404000  0.01518000  0.57303000  1.0
  N  N628  1  0.73194000  0.70761000  0.17139000  1.0
  N  N629  1  0.16488000  0.69490000  0.41831000  1.0
  N  N630  1  0.22731000  0.19063000  0.20799000  1.0
  N  N631  1  0.68929000  0.23543000  0.23771000  1.0
  N  N632  1  0.19825000  0.22057000  0.70522000  1.0
  N  N633  1  0.68151000  0.19223000  0.95246000  1.0
  N  N634  1  0.68790000  0.76985000  0.67391000  1.0
  N  N635  1  0.23939000  0.69514000  0.71288000  1.0
  N  N636  1  0.64761000  0.99945000  0.13429000  1.0
  N  N637  1  0.91674000  0.75463000  0.06177000  1.0
  N  N638  1  0.19608000  0.11225000  0.01492000  1.0
  N  N639  1  0.80265000  0.10317000  0.12599000  1.0
  N  N640  1  0.73307000  0.13003000  0.57926000  1.0
  N  N641  1  0.83453000  0.76746000  0.57989000  1.0
  N  N642  1  0.24791000  0.01029000  0.65587000  1.0
  N  N643  1  0.12085000  0.11026000  0.56154000  1.0
  N  N644  1  0.22069000  0.51654000  0.59397000  1.0
  N  N645  1  0.40196000  0.22417000  0.61207000  1.0
  N  N646  1  0.69490000  0.62578000  0.53753000  1.0
  N  N647  1  0.32773000  0.67741000  0.51863000  1.0
  N  N648  1  0.24381000  0.61378000  0.11200000  1.0
  N  N649  1  0.52979000  0.22311000  0.16151000  1.0
  N  N650  1  0.70299000  0.30877000  0.07386000  1.0
  N  N651  1  0.42809000  0.69782000  0.03258000  1.0
  N  N652  1  0.91557000  0.56834000  0.98324000  1.0
  N  N653  1  0.38785000  0.90244000  0.07360000  1.0
  N  N654  1  0.86999000  0.41109000  0.58832000  1.0
  N  N655  1  0.38288000  0.03036000  0.54769000  1.0
  O  O656  1  0.78629000  0.65262000  0.93586000  1.0
  O  O657  1  0.80617000  0.72743000  0.93747000  1.0
  O  O658  1  0.68208000  0.69707000  0.11933000  1.0
  O  O659  1  0.75672000  0.68218000  0.10777000  1.0
  O  O660  1  0.86427000  0.69448000  0.07308000  1.0
  O  O661  1  0.87272000  0.73526000  0.00837000  1.0
  O  O662  1  0.78331000  0.77032000  0.01402000  1.0
  O  O663  1  0.71775000  0.73182000  0.03431000  1.0
  O  O664  1  0.79574000  0.67131000  0.02012000  1.0
  O  O665  1  0.70332000  0.63326000  0.04816000  1.0
  O  O666  1  0.72675000  0.61751000  0.98356000  1.0
  O  O667  1  0.88609000  0.62558000  0.01913000  1.0
  O  O668  1  0.84009000  0.59459000  0.97656000  1.0
  O  O669  1  0.81789000  0.60094000  0.08593000  1.0
  O  O670  1  0.78045000  0.57705000  0.03187000  1.0
  O  O671  1  0.26677000  0.80256000  0.14763000  1.0
  O  O672  1  0.31834000  0.74475000  0.15809000  1.0
  O  O673  1  0.17796000  0.70839000  0.99450000  1.0
  O  O674  1  0.24743000  0.74248000  0.99244000  1.0
  O  O675  1  0.36768000  0.74750000  0.01592000  1.0
  O  O676  1  0.37878000  0.72079000  0.08401000  1.0
  O  O677  1  0.29552000  0.67329000  0.11159000  1.0
  O  O678  1  0.23144000  0.68613000  0.07573000  1.0
  O  O679  1  0.29063000  0.76937000  0.07052000  1.0
  O  O680  1  0.19014000  0.77616000  0.06115000  1.0
  O  O681  1  0.21479000  0.83070000  0.09886000  1.0
  O  O682  1  0.37034000  0.83341000  0.05068000  1.0
  O  O683  1  0.32072000  0.86135000  0.09592000  1.0
  O  O684  1  0.30380000  0.82640000  0.99044000  1.0
  O  O685  1  0.26242000  0.85765000  0.04100000  1.0
  O  O686  1  0.20397000  0.29853000  0.97581000  1.0
  O  O687  1  0.13336000  0.26928000  0.96879000  1.0
  O  O688  1  0.25248000  0.16424000  0.14739000  1.0
  O  O689  1  0.18733000  0.20649000  0.14577000  1.0
  O  O690  1  0.08159000  0.23676000  0.10619000  1.0
  O  O691  1  0.07408000  0.21842000  0.04081000  1.0
  O  O692  1  0.15497000  0.17919000  0.00774000  1.0
  O  O693  1  0.19639000  0.16043000  0.06529000  1.0
  O  O694  1  0.16321000  0.25691000  0.05628000  1.0
  O  O695  1  0.25198000  0.23369000  0.07927000  1.0
  O  O696  1  0.25706000  0.30160000  0.03632000  1.0
  O  O697  1  0.08920000  0.32222000  0.04737000  1.0
  O  O698  1  0.15292000  0.35379000  0.01172000  1.0
  O  O699  1  0.14393000  0.31517000  0.12017000  1.0
  O  O700  1  0.20025000  0.34309000  0.07198000  1.0
  O  O701  1  0.64426000  0.20653000  0.01504000  1.0
  O  O702  1  0.68168000  0.13926000  0.01386000  1.0
  O  O703  1  0.74235000  0.23306000  0.18265000  1.0
  O  O704  1  0.67253000  0.20176000  0.17789000  1.0
  O  O705  1  0.63641000  0.07184000  0.15375000  1.0
  O  O706  1  0.65172000  0.06289000  0.08511000  1.0
  O  O707  1  0.73935000  0.10715000  0.08473000  1.0
  O  O708  1  0.73892000  0.14393000  0.14145000  1.0
  O  O709  1  0.65387000  0.15703000  0.09982000  1.0
  O  O710  1  0.71505000  0.23205000  0.09315000  1.0
  O  O711  1  0.64594000  0.25481000  0.06953000  1.0
  O  O712  1  0.56944000  0.10825000  0.09996000  1.0
  O  O713  1  0.57276000  0.16816000  0.04740000  1.0
  O  O714  1  0.58286000  0.16418000  0.16329000  1.0
  O  O715  1  0.57975000  0.21895000  0.10580000  1.0
  O  O716  1  0.75499000  0.31322000  0.67370000  1.0
  O  O717  1  0.77970000  0.23898000  0.67715000  1.0
  O  O718  1  0.63842000  0.23706000  0.52204000  1.0
  O  O719  1  0.70813000  0.27137000  0.51682000  1.0
  O  O720  1  0.84041000  0.25552000  0.53970000  1.0
  O  O721  1  0.85276000  0.24194000  0.60892000  1.0
  O  O722  1  0.77660000  0.18353000  0.60693000  1.0
  O  O723  1  0.70538000  0.20131000  0.58797000  1.0
  O  O724  1  0.76391000  0.28265000  0.59368000  1.0
  O  O725  1  0.66255000  0.28619000  0.59938000  1.0
  O  O726  1  0.69165000  0.34179000  0.63342000  1.0
  O  O727  1  0.84518000  0.34244000  0.57046000  1.0
  O  O728  1  0.79861000  0.37799000  0.61316000  1.0
  O  O729  1  0.77387000  0.33677000  0.51455000  1.0
  O  O730  1  0.73137000  0.36527000  0.56681000  1.0
  O  O731  1  0.66248000  0.74598000  0.61268000  1.0
  O  O732  1  0.68622000  0.81924000  0.61032000  1.0
  O  O733  1  0.79266000  0.71775000  0.44179000  1.0
  O  O734  1  0.73945000  0.77335000  0.44538000  1.0
  O  O735  1  0.68605000  0.86657000  0.46417000  1.0
  O  O736  1  0.70950000  0.88150000  0.52790000  1.0
  O  O737  1  0.77189000  0.81368000  0.56723000  1.0
  O  O738  1  0.78270000  0.75329000  0.53172000  1.0
  O  O739  1  0.68790000  0.78589000  0.52729000  1.0
  O  O740  1  0.71442000  0.69796000  0.50832000  1.0
  O  O741  1  0.65936000  0.68967000  0.56097000  1.0
  O  O742  1  0.61157000  0.84736000  0.52160000  1.0
  O  O743  1  0.59672000  0.78855000  0.57409000  1.0
  O  O744  1  0.61976000  0.78379000  0.46268000  1.0
  O  O745  1  0.60411000  0.73512000  0.52319000  1.0
  O  O746  1  0.14036000  0.71268000  0.48490000  1.0
  O  O747  1  0.16594000  0.64190000  0.47903000  1.0
  O  O748  1  0.27694000  0.71858000  0.64843000  1.0
  O  O749  1  0.21168000  0.67748000  0.64920000  1.0
  O  O750  1  0.18160000  0.57859000  0.61520000  1.0
  O  O751  1  0.21273000  0.58229000  0.54815000  1.0
  O  O752  1  0.25137000  0.67067000  0.50700000  1.0
  O  O753  1  0.27327000  0.66353000  0.57320000  1.0
  O  O754  1  0.17171000  0.66385000  0.56458000  1.0
  O  O755  1  0.21574000  0.74487000  0.57456000  1.0
  O  O756  1  0.14600000  0.75879000  0.54551000  1.0
  O  O757  1  0.10085000  0.59695000  0.57220000  1.0
  O  O758  1  0.07769000  0.66118000  0.53137000  1.0
  O  O759  1  0.11030000  0.65197000  0.63754000  1.0
  O  O760  1  0.09046000  0.70979000  0.58633000  1.0
  O  O761  1  0.26127000  0.11359000  0.49165000  1.0
  O  O762  1  0.30826000  0.17626000  0.48271000  1.0
  O  O763  1  0.15650000  0.20176000  0.65072000  1.0
  O  O764  1  0.23155000  0.18379000  0.65047000  1.0
  O  O765  1  0.34568000  0.16730000  0.62556000  1.0
  O  O766  1  0.35814000  0.20388000  0.55914000  1.0
  O  O767  1  0.27186000  0.24065000  0.53499000  1.0
  O  O768  1  0.20335000  0.21609000  0.56550000  1.0
  O  O769  1  0.27482000  0.14639000  0.57174000  1.0
  O  O770  1  0.17973000  0.12147000  0.60293000  1.0
  O  O771  1  0.19683000  0.10118000  0.53945000  1.0
  O  O772  1  0.35732000  0.09302000  0.57741000  1.0
  O  O773  1  0.30785000  0.05855000  0.54027000  1.0
  O  O774  1  0.28796000  0.07857000  0.64354000  1.0
  O  O775  1  0.24388000  0.05559000  0.59343000  1.0
  O  O776  1  0.80714000  0.68200000  0.16829000  1.0
  O  O777  1  0.83959000  0.72834000  0.36945000  1.0
  O  O778  1  0.68819000  0.77916000  0.37922000  1.0
  O  O779  1  0.65858000  0.73828000  0.17694000  1.0
  O  O780  1  0.14790000  0.77193000  0.42104000  1.0
  O  O781  1  0.25102000  0.83586000  0.22270000  1.0
  O  O782  1  0.28413000  0.68107000  0.21480000  1.0
  O  O783  1  0.17537000  0.61836000  0.40860000  1.0
  O  O784  1  0.30378000  0.20906000  0.19221000  1.0
  O  O785  1  0.35067000  0.17513000  0.40311000  1.0
  O  O786  1  0.19846000  0.13017000  0.43579000  1.0
  O  O787  1  0.15038000  0.17778000  0.22538000  1.0
  O  O788  1  0.74286000  0.29496000  0.22828000  1.0
  O  O789  1  0.73048000  0.31211000  0.44005000  1.0
  O  O790  1  0.61642000  0.19786000  0.46035000  1.0
  O  O791  1  0.62961000  0.18230000  0.24832000  1.0
  O  O792  1  0.26786000  0.18565000  0.72072000  1.0
  O  O793  1  0.25261000  0.24859000  0.92077000  1.0
  O  O794  1  0.11272000  0.31956000  0.89049000  1.0
  O  O795  1  0.13221000  0.26317000  0.69030000  1.0
  O  O796  1  0.62750000  0.25084000  0.94608000  1.0
  O  O797  1  0.69826000  0.32162000  0.73900000  1.0
  O  O798  1  0.81026000  0.20685000  0.74953000  1.0
  O  O799  1  0.73615000  0.13424000  0.95424000  1.0
  O  O800  1  0.65121000  0.69855000  0.68199000  1.0
  O  O801  1  0.74233000  0.63457000  0.87460000  1.0
  O  O802  1  0.81233000  0.77976000  0.86569000  1.0
  O  O803  1  0.72033000  0.84261000  0.67250000  1.0
  O  O804  1  0.31726000  0.71114000  0.71438000  1.0
  O  O805  1  0.29735000  0.73952000  0.92343000  1.0
  O  O806  1  0.14140000  0.70132000  0.92592000  1.0
  O  O807  1  0.16260000  0.67413000  0.71627000  1.0
  O  O808  1  0.71800000  0.00744000  0.16206000  1.0
  O  O809  1  0.79566000  0.81926000  0.07462000  1.0
  O  O810  1  0.64992000  0.79805000  0.02617000  1.0
  O  O811  1  0.57563000  0.98954000  0.11044000  1.0
  O  O812  1  0.91483000  0.80904000  0.00179000  1.0
  O  O813  1  0.13436000  0.87299000  0.03003000  1.0
  O  O814  1  0.13386000  0.77185000  0.15534000  1.0
  O  O815  1  0.91347000  0.71129000  0.12843000  1.0
  O  O816  1  0.26994000  0.12754000  0.03226000  1.0
  O  O817  1  0.34369000  0.92039000  0.98131000  1.0
  O  O818  1  0.19352000  0.88112000  0.95946000  1.0
  O  O819  1  0.12356000  0.09784000  0.99369000  1.0
  O  O820  1  0.81082000  0.06472000  0.06769000  1.0
  O  O821  1  0.03112000  0.14441000  0.03637000  1.0
  O  O822  1  0.01335000  0.21422000  0.15869000  1.0
  O  O823  1  0.79799000  0.12209000  0.19389000  1.0
  O  O824  1  0.65370000  0.13584000  0.58220000  1.0
  O  O825  1  0.63312000  0.95464000  0.47100000  1.0
  O  O826  1  0.79075000  0.93320000  0.47205000  1.0
  O  O827  1  0.81125000  0.11551000  0.58191000  1.0
  O  O828  1  0.85475000  0.84407000  0.57801000  1.0
  O  O829  1  0.06755000  0.77758000  0.64451000  1.0
  O  O830  1  0.02112000  0.62405000  0.65985000  1.0
  O  O831  1  0.81291000  0.69056000  0.58735000  1.0
  O  O832  1  0.17204000  0.02527000  0.66942000  1.0
  O  O833  1  0.11544000  0.83609000  0.57467000  1.0
  O  O834  1  0.27162000  0.81245000  0.54803000  1.0
  O  O835  1  0.32379000  0.98922000  0.65729000  1.0
  O  O836  1  0.13580000  0.14808000  0.49414000  1.0
  O  O837  1  0.92280000  0.24831000  0.49679000  1.0
  O  O838  1  0.88812000  0.16182000  0.62815000  1.0
  O  O839  1  0.10353000  0.07057000  0.62766000  1.0
  O  O840  1  0.28568000  0.53250000  0.55049000  1.0
  O  O841  1  0.27022000  0.31902000  0.48757000  1.0
  O  O842  1  0.15200000  0.27981000  0.58912000  1.0
  O  O843  1  0.16481000  0.49657000  0.64707000  1.0
  O  O844  1  0.41311000  0.16953000  0.67039000  1.0
  O  O845  1  0.62205000  0.26447000  0.69625000  1.0
  O  O846  1  0.59574000  0.38288000  0.58794000  1.0
  O  O847  1  0.38952000  0.28375000  0.55814000  1.0
  O  O848  1  0.62025000  0.60835000  0.56151000  1.0
  O  O849  1  0.64917000  0.38667000  0.51433000  1.0
  O  O850  1  0.80087000  0.42114000  0.47273000  1.0
  O  O851  1  0.77325000  0.63699000  0.52542000  1.0
  O  O852  1  0.30595000  0.74169000  0.47377000  1.0
  O  O853  1  0.53367000  0.80129000  0.43304000  1.0
  O  O854  1  0.57560000  0.65559000  0.49667000  1.0
  O  O855  1  0.35033000  0.61283000  0.56245000  1.0
  O  O856  1  0.16740000  0.63236000  0.10213000  1.0
  O  O857  1  0.10890000  0.40383000  0.12035000  1.0
  O  O858  1  0.26183000  0.36419000  0.13909000  1.0
  O  O859  1  0.31856000  0.59222000  0.12707000  1.0
  O  O860  1  0.50296000  0.15450000  0.19897000  1.0
  O  O861  1  0.32109000  0.18315000  0.07463000  1.0
  O  O862  1  0.33953000  0.34320000  0.05634000  1.0
  O  O863  1  0.55366000  0.29792000  0.13915000  1.0
  O  O864  1  0.62879000  0.33515000  0.08298000  1.0
  O  O865  1  0.70973000  0.54760000  0.11333000  1.0
  O  O866  1  0.85755000  0.50228000  0.07876000  1.0
  O  O867  1  0.77752000  0.28667000  0.05906000  1.0
  O  O868  1  0.43787000  0.74541000  0.96857000  1.0
  O  O869  1  0.65567000  0.66394000  0.94153000  1.0
  O  O870  1  0.63397000  0.56160000  0.06563000  1.0
  O  O871  1  0.41743000  0.64431000  0.09281000  1.0
  O  O872  1  0.97034000  0.61893000  0.00055000  1.0
  O  O873  1  0.13213000  0.44632000  0.02208000  1.0
  O  O874  1  0.02527000  0.34346000  0.98376000  1.0
  O  O875  1  0.86523000  0.51732000  0.95973000  1.0
  O  O876  1  0.44913000  0.86521000  0.04438000  1.0
  O  O877  1  0.57855000  0.06353000  0.01337000  1.0
  O  O878  1  0.46137000  0.14073000  0.07703000  1.0
  O  O879  1  0.33096000  0.94235000  0.10635000  1.0
  O  O880  1  0.81555000  0.46585000  0.60059000  1.0
  O  O881  1  0.97817000  0.64104000  0.55207000  1.0
  O  O882  1  0.08609000  0.53186000  0.52093000  1.0
  O  O883  1  0.92801000  0.35881000  0.57902000  1.0
  O  O884  1  0.43935000  0.08237000  0.55920000  1.0
  O  O885  1  0.60056000  0.91142000  0.58553000  1.0
  O  O886  1  0.49628000  0.80672000  0.54654000  1.0
  O  O887  1  0.33141000  0.97801000  0.52794000  1.0
