# generated using pymatgen
data_La8H384C318N24O47
_symmetry_space_group_name_H-M   'P 1'
_cell_length_a   31.38790000
_cell_length_b   32.80210000
_cell_length_c   35.35970000
_cell_angle_alpha   91.48800000
_cell_angle_beta   94.47400000
_cell_angle_gamma   87.26800000
_symmetry_Int_Tables_number   1
_chemical_formula_structural   La8H384C318N24O47
_chemical_formula_sum   'La8 H384 C318 N24 O47'
_cell_volume   36244.72172870
_cell_formula_units_Z   1
loop_
 _symmetry_equiv_pos_site_id
 _symmetry_equiv_pos_as_xyz
  1  'x, y, z'
loop_
 _atom_site_type_symbol
 _atom_site_label
 _atom_site_symmetry_multiplicity
 _atom_site_fract_x
 _atom_site_fract_y
 _atom_site_fract_z
 _atom_site_occupancy
  La  La0  1  0.00131000  0.03462000  0.04550000  1.0
  La  La1  1  0.00791000  0.94457000  0.95123000  1.0
  La  La2  1  0.54977000  0.96219000  0.50884000  1.0
  La  La3  1  0.45328000  0.03204000  0.49928000  1.0
  La  La4  1  0.44257000  0.50276000  0.95465000  1.0
  La  La5  1  0.55363000  0.48992000  0.04772000  1.0
  La  La6  1  0.04761000  0.49388000  0.54424000  1.0
  La  La7  1  0.95312000  0.50690000  0.45710000  1.0
  H  H8  1  0.19523000  0.80078000  0.76860000  1.0
  H  H9  1  0.14973000  0.84330000  0.80720000  1.0
  H  H10  1  0.34076000  0.83940000  0.77964000  1.0
  H  H11  1  0.37926000  0.80435000  0.83090000  1.0
  H  H12  1  0.19119000  0.84818000  0.69550000  1.0
  H  H13  1  0.13881000  0.81133000  0.65608000  1.0
  H  H14  1  0.34896000  0.79735000  0.71778000  1.0
  H  H15  1  0.39797000  0.83178000  0.68643000  1.0
  H  H16  1  0.27687000  0.74191000  0.69899000  1.0
  H  H17  1  0.22297000  0.70370000  0.66021000  1.0
  H  H18  1  0.25231000  0.89363000  0.69291000  1.0
  H  H19  1  0.29796000  0.91756000  0.64416000  1.0
  H  H20  1  0.25046000  0.74376000  0.76672000  1.0
  H  H21  1  0.28636000  0.71160000  0.82283000  1.0
  H  H22  1  0.28450000  0.89706000  0.76912000  1.0
  H  H23  1  0.23802000  0.93974000  0.80802000  1.0
  H  H24  1  0.70143000  0.10539000  0.23096000  1.0
  H  H25  1  0.73658000  0.05704000  0.19031000  1.0
  H  H26  1  0.74666000  0.25028000  0.23078000  1.0
  H  H27  1  0.70859000  0.27977000  0.17476000  1.0
  H  H28  1  0.75349000  0.10265000  0.30028000  1.0
  H  H29  1  0.71736000  0.06834000  0.34668000  1.0
  H  H30  1  0.72688000  0.25818000  0.30031000  1.0
  H  H31  1  0.78222000  0.29417000  0.34054000  1.0
  H  H32  1  0.65030000  0.19590000  0.29279000  1.0
  H  H33  1  0.61447000  0.15972000  0.33896000  1.0
  H  H34  1  0.80839000  0.14908000  0.30386000  1.0
  H  H35  1  0.86239000  0.18408000  0.34183000  1.0
  H  H36  1  0.65235000  0.15842000  0.22909000  1.0
  H  H37  1  0.61422000  0.18894000  0.17504000  1.0
  H  H38  1  0.81207000  0.18026000  0.23624000  1.0
  H  H39  1  0.84912000  0.12798000  0.20024000  1.0
  H  H40  1  0.19094000  0.27093000  0.25714000  1.0
  H  H41  1  0.15295000  0.31439000  0.30343000  1.0
  H  H42  1  0.35001000  0.29629000  0.25949000  1.0
  H  H43  1  0.39115000  0.25307000  0.30437000  1.0
  H  H44  1  0.19023000  0.30478000  0.18835000  1.0
  H  H45  1  0.14984000  0.26926000  0.13858000  1.0
  H  H46  1  0.34766000  0.25909000  0.19345000  1.0
  H  H47  1  0.38318000  0.28764000  0.14375000  1.0
  H  H48  1  0.29169000  0.21116000  0.18429000  1.0
  H  H49  1  0.25114000  0.17630000  0.13316000  1.0
  H  H50  1  0.25205000  0.35851000  0.18664000  1.0
  H  H51  1  0.28691000  0.38528000  0.13368000  1.0
  H  H52  1  0.25048000  0.20836000  0.24978000  1.0
  H  H53  1  0.29100000  0.16696000  0.29568000  1.0
  H  H54  1  0.28962000  0.35747000  0.25862000  1.0
  H  H55  1  0.25340000  0.39949000  0.30326000  1.0
  H  H56  1  0.22233000  0.10582000  0.74465000  1.0
  H  H57  1  0.26614000  0.05784000  0.70868000  1.0
  H  H58  1  0.27222000  0.24682000  0.74861000  1.0
  H  H59  1  0.23026000  0.29095000  0.70332000  1.0
  H  H60  1  0.26178000  0.09781000  0.81440000  1.0
  H  H61  1  0.21376000  0.06165000  0.85143000  1.0
  H  H62  1  0.23853000  0.25536000  0.81725000  1.0
  H  H63  1  0.29045000  0.29194000  0.85772000  1.0
  H  H64  1  0.18141000  0.20757000  0.82357000  1.0
  H  H65  1  0.14079000  0.17373000  0.86816000  1.0
  H  H66  1  0.32118000  0.14661000  0.82487000  1.0
  H  H67  1  0.37231000  0.18227000  0.86575000  1.0
  H  H68  1  0.16936000  0.16440000  0.74479000  1.0
  H  H69  1  0.12887000  0.20662000  0.69783000  1.0
  H  H70  1  0.32726000  0.18699000  0.75741000  1.0
  H  H71  1  0.37266000  0.13622000  0.72975000  1.0
  H  H72  1  0.69178000  0.78835000  0.24127000  1.0
  H  H73  1  0.63066000  0.82703000  0.25212000  1.0
  H  H74  1  0.84106000  0.83847000  0.25971000  1.0
  H  H75  1  0.87982000  0.80675000  0.31303000  1.0
  H  H76  1  0.68056000  0.83228000  0.17911000  1.0
  H  H77  1  0.63905000  0.78139000  0.14173000  1.0
  H  H78  1  0.84290000  0.80727000  0.19208000  1.0
  H  H79  1  0.87726000  0.85000000  0.15159000  1.0
  H  H80  1  0.79350000  0.75233000  0.17892000  1.0
  H  H81  1  0.75676000  0.70969000  0.13218000  1.0
  H  H82  1  0.73357000  0.89267000  0.19010000  1.0
  H  H83  1  0.76673000  0.93411000  0.14644000  1.0
  H  H84  1  0.75020000  0.74377000  0.25465000  1.0
  H  H85  1  0.78715000  0.71427000  0.31200000  1.0
  H  H86  1  0.76764000  0.89360000  0.26659000  1.0
  H  H87  1  0.70959000  0.91981000  0.30771000  1.0
  H  H88  1  0.71939000  0.63409000  0.74041000  1.0
  H  H89  1  0.75901000  0.59418000  0.69427000  1.0
  H  H90  1  0.77213000  0.76892000  0.73821000  1.0
  H  H91  1  0.73436000  0.82382000  0.70474000  1.0
  H  H92  1  0.74375000  0.63097000  0.81647000  1.0
  H  H93  1  0.69239000  0.60439000  0.85897000  1.0
  H  H94  1  0.70415000  0.78352000  0.79784000  1.0
  H  H95  1  0.71932000  0.82690000  0.84838000  1.0
  H  H96  1  0.65942000  0.73848000  0.80102000  1.0
  H  H97  1  0.61723000  0.71706000  0.84721000  1.0
  H  H98  1  0.81669000  0.70637000  0.82861000  1.0
  H  H99  1  0.83551000  0.75677000  0.88055000  1.0
  H  H100  1  0.65497000  0.70427000  0.73782000  1.0
  H  H101  1  0.61640000  0.76290000  0.70788000  1.0
  H  H102  1  0.82066000  0.71840000  0.75371000  1.0
  H  H103  1  0.85834000  0.68037000  0.70529000  1.0
  H  H104  1  0.15661000  0.88475000  0.86833000  1.0
  H  H105  1  0.16323000  0.95665000  0.81927000  1.0
  H  H106  1  0.12567000  0.92028000  0.80307000  1.0
  H  H107  1  0.16551000  0.97469000  0.88177000  1.0
  H  H108  1  0.20759000  0.93558000  0.88525000  1.0
  H  H109  1  0.17828000  0.90524000  0.93860000  1.0
  H  H110  1  0.18168000  0.95964000  0.94730000  1.0
  H  H111  1  0.10560000  0.97077000  0.92866000  1.0
  H  H112  1  0.10012000  0.87887000  0.91455000  1.0
  H  H113  1  0.05693000  0.91695000  0.91045000  1.0
  H  H114  1  0.08275000  0.89872000  0.84825000  1.0
  H  H115  1  0.08886000  0.95185000  0.86004000  1.0
  H  H116  1  0.59812000  0.09784000  0.37839000  1.0
  H  H117  1  0.69085000  0.09426000  0.40320000  1.0
  H  H118  1  0.66855000  0.14378000  0.40030000  1.0
  H  H119  1  0.65843000  0.05115000  0.43336000  1.0
  H  H120  1  0.63241000  0.03472000  0.38932000  1.0
  H  H121  1  0.56344000  0.03708000  0.41732000  1.0
  H  H122  1  0.60350000  0.01123000  0.44897000  1.0
  H  H123  1  0.61446000  0.07466000  0.48788000  1.0
  H  H124  1  0.54116000  0.10813000  0.43024000  1.0
  H  H125  1  0.56055000  0.13451000  0.47315000  1.0
  H  H126  1  0.59491000  0.15637000  0.41707000  1.0
  H  H127  1  0.63247000  0.13377000  0.45265000  1.0
  H  H128  1  0.34457000  0.68054000  0.85912000  1.0
  H  H129  1  0.37985000  0.76159000  0.88194000  1.0
  H  H130  1  0.32573000  0.75409000  0.88811000  1.0
  H  H131  1  0.42974000  0.70752000  0.89337000  1.0
  H  H132  1  0.41686000  0.69415000  0.84444000  1.0
  H  H133  1  0.40473000  0.62294000  0.86040000  1.0
  H  H134  1  0.45632000  0.63752000  0.88100000  1.0
  H  H135  1  0.42920000  0.64939000  0.94356000  1.0
  H  H136  1  0.34085000  0.62515000  0.90876000  1.0
  H  H137  1  0.35569000  0.64047000  0.95720000  1.0
  H  H138  1  0.31857000  0.69647000  0.92084000  1.0
  H  H139  1  0.37166000  0.70908000  0.93846000  1.0
  H  H140  1  0.84924000  0.32421000  0.35945000  1.0
  H  H141  1  0.87651000  0.24269000  0.39074000  1.0
  H  H142  1  0.89584000  0.25171000  0.34766000  1.0
  H  H143  1  0.89008000  0.29442000  0.43437000  1.0
  H  H144  1  0.83443000  0.30670000  0.42328000  1.0
  H  H145  1  0.84814000  0.38014000  0.41747000  1.0
  H  H146  1  0.87191000  0.36126000  0.46200000  1.0
  H  H147  1  0.94256000  0.35719000  0.44001000  1.0
  H  H148  1  0.90487000  0.38652000  0.36165000  1.0
  H  H149  1  0.95909000  0.37023000  0.37596000  1.0
  H  H150  1  0.92025000  0.31690000  0.33742000  1.0
  H  H151  1  0.94100000  0.29993000  0.38309000  1.0
  H  H152  1  0.33733000  0.89845000  0.58328000  1.0
  H  H153  1  0.41136000  0.86826000  0.63584000  1.0
  H  H154  1  0.36886000  0.83740000  0.61789000  1.0
  H  H155  1  0.41656000  0.93386000  0.61988000  1.0
  H  H156  1  0.36444000  0.95692000  0.60947000  1.0
  H  H157  1  0.37697000  0.96469000  0.54279000  1.0
  H  H158  1  0.42489000  0.97935000  0.56913000  1.0
  H  H159  1  0.45722000  0.90959000  0.56499000  1.0
  H  H160  1  0.37640000  0.89948000  0.50977000  1.0
  H  H161  1  0.42349000  0.86512000  0.51197000  1.0
  H  H162  1  0.36847000  0.84294000  0.55209000  1.0
  H  H163  1  0.42043000  0.85089000  0.57481000  1.0
  H  H164  1  0.58644000  0.28390000  0.14102000  1.0
  H  H165  1  0.66920000  0.24968000  0.11334000  1.0
  H  H166  1  0.62299000  0.22134000  0.11782000  1.0
  H  H167  1  0.66769000  0.32207000  0.12399000  1.0
  H  H168  1  0.64284000  0.32276000  0.16836000  1.0
  H  H169  1  0.58132000  0.36471000  0.14178000  1.0
  H  H170  1  0.63130000  0.38845000  0.13703000  1.0
  H  H171  1  0.63122000  0.36015000  0.06950000  1.0
  H  H172  1  0.54198000  0.33179000  0.08515000  1.0
  H  H173  1  0.56623000  0.32807000  0.04073000  1.0
  H  H174  1  0.57382000  0.26290000  0.07709000  1.0
  H  H175  1  0.62340000  0.28194000  0.06518000  1.0
  H  H176  1  0.12831000  0.72233000  0.59059000  1.0
  H  H177  1  0.13687000  0.70562000  0.67404000  1.0
  H  H178  1  0.10689000  0.74830000  0.65567000  1.0
  H  H179  1  0.15777000  0.65099000  0.63820000  1.0
  H  H180  1  0.18358000  0.67430000  0.60143000  1.0
  H  H181  1  0.13220000  0.64519000  0.55196000  1.0
  H  H182  1  0.15736000  0.60591000  0.58147000  1.0
  H  H183  1  0.09308000  0.61408000  0.62234000  1.0
  H  H184  1  0.05913000  0.66783000  0.55509000  1.0
  H  H185  1  0.02803000  0.65180000  0.59186000  1.0
  H  H186  1  0.05763000  0.72240000  0.60324000  1.0
  H  H187  1  0.06792000  0.68745000  0.64079000  1.0
  H  H188  1  0.78367000  0.09195000  0.11975000  1.0
  H  H189  1  0.84855000  0.05116000  0.17506000  1.0
  H  H190  1  0.79786000  0.03036000  0.16396000  1.0
  H  H191  1  0.87536000  0.09991000  0.14458000  1.0
  H  H192  1  0.83369000  0.13812000  0.13432000  1.0
  H  H193  1  0.83861000  0.12755000  0.06677000  1.0
  H  H194  1  0.89110000  0.13331000  0.08964000  1.0
  H  H195  1  0.89127000  0.05266000  0.09835000  1.0
  H  H196  1  0.81456000  0.06769000  0.04057000  1.0
  H  H197  1  0.84320000  0.01947000  0.04534000  1.0
  H  H198  1  0.78141000  0.03123000  0.08948000  1.0
  H  H199  1  0.83243000  0.01524000  0.10991000  1.0
  H  H200  1  0.20883000  0.15611000  0.07805000  1.0
  H  H201  1  0.13591000  0.20868000  0.10496000  1.0
  H  H202  1  0.17639000  0.22443000  0.07635000  1.0
  H  H203  1  0.14863000  0.14358000  0.13666000  1.0
  H  H204  1  0.20186000  0.12323000  0.13251000  1.0
  H  H205  1  0.17806000  0.07039000  0.08743000  1.0
  H  H206  1  0.14355000  0.07152000  0.12566000  1.0
  H  H207  1  0.09466000  0.12369000  0.08776000  1.0
  H  H208  1  0.15836000  0.09641000  0.02768000  1.0
  H  H209  1  0.10709000  0.12211000  0.01609000  1.0
  H  H210  1  0.16512000  0.16968000  0.02569000  1.0
  H  H211  1  0.11880000  0.17788000  0.05128000  1.0
  H  H212  1  0.34783000  0.05976000  0.64798000  1.0
  H  H213  1  0.37947000  0.05654000  0.72990000  1.0
  H  H214  1  0.33658000  0.02947000  0.70593000  1.0
  H  H215  1  0.41939000  0.10564000  0.68854000  1.0
  H  H216  1  0.36999000  0.12758000  0.66566000  1.0
  H  H217  1  0.38583000  0.10743000  0.60457000  1.0
  H  H218  1  0.43196000  0.13131000  0.62696000  1.0
  H  H219  1  0.47314000  0.06816000  0.63474000  1.0
  H  H220  1  0.39378000  0.02113000  0.60771000  1.0
  H  H221  1  0.44614000  0.00106000  0.62781000  1.0
  H  H222  1  0.38891000  0.99855000  0.67008000  1.0
  H  H223  1  0.43101000  0.03041000  0.68919000  1.0
  H  H224  1  0.34711000  0.40986000  0.09910000  1.0
  H  H225  1  0.37497000  0.32180000  0.08675000  1.0
  H  H226  1  0.32177000  0.34157000  0.07641000  1.0
  H  H227  1  0.43322000  0.36528000  0.09785000  1.0
  H  H228  1  0.41079000  0.39044000  0.13801000  1.0
  H  H229  1  0.41265000  0.45768000  0.10926000  1.0
  H  H230  1  0.46447000  0.43141000  0.10949000  1.0
  H  H231  1  0.45114000  0.41076000  0.04230000  1.0
  H  H232  1  0.36352000  0.45765000  0.04492000  1.0
  H  H233  1  0.38478000  0.43228000  0.00423000  1.0
  H  H234  1  0.33440000  0.38990000  0.03314000  1.0
  H  H235  1  0.38712000  0.36593000  0.03432000  1.0
  H  H236  1  0.17143000  0.30212000  0.63829000  1.0
  H  H237  1  0.10878000  0.27580000  0.68913000  1.0
  H  H238  1  0.14399000  0.30884000  0.71258000  1.0
  H  H239  1  0.07609000  0.30012000  0.63820000  1.0
  H  H240  1  0.11164000  0.27205000  0.60925000  1.0
  H  H241  1  0.11864000  0.33150000  0.56983000  1.0
  H  H242  1  0.06305000  0.32745000  0.57647000  1.0
  H  H243  1  0.06821000  0.37862000  0.62991000  1.0
  H  H244  1  0.16169000  0.37914000  0.60741000  1.0
  H  H245  1  0.13850000  0.41644000  0.63904000  1.0
  H  H246  1  0.17659000  0.36174000  0.67563000  1.0
  H  H247  1  0.12017000  0.36416000  0.68151000  1.0
  H  H248  1  0.34644000  0.13316000  0.32510000  1.0
  H  H249  1  0.38514000  0.21083000  0.35546000  1.0
  H  H250  1  0.33020000  0.20619000  0.35872000  1.0
  H  H251  1  0.43229000  0.16130000  0.35220000  1.0
  H  H252  1  0.41537000  0.13290000  0.31070000  1.0
  H  H253  1  0.41451000  0.07043000  0.34633000  1.0
  H  H254  1  0.46248000  0.09539000  0.36297000  1.0
  H  H255  1  0.42149000  0.13237000  0.41340000  1.0
  H  H256  1  0.35270000  0.07359000  0.37988000  1.0
  H  H257  1  0.35089000  0.09656000  0.42682000  1.0
  H  H258  1  0.31122000  0.13869000  0.37880000  1.0
  H  H259  1  0.35437000  0.16319000  0.40526000  1.0
  H  H260  1  0.34651000  0.31985000  0.88180000  1.0
  H  H261  1  0.40246000  0.24304000  0.88877000  1.0
  H  H262  1  0.39158000  0.26198000  0.84329000  1.0
  H  H263  1  0.41583000  0.28670000  0.93745000  1.0
  H  H264  1  0.35963000  0.29210000  0.94328000  1.0
  H  H265  1  0.36100000  0.36606000  0.94799000  1.0
  H  H266  1  0.40639000  0.34533000  0.97673000  1.0
  H  H267  1  0.45596000  0.35783000  0.93074000  1.0
  H  H268  1  0.37916000  0.38857000  0.87729000  1.0
  H  H269  1  0.43527000  0.38700000  0.86832000  1.0
  H  H270  1  0.39934000  0.32960000  0.83800000  1.0
  H  H271  1  0.44076000  0.31279000  0.87316000  1.0
  H  H272  1  0.11502000  0.39293000  0.32925000  1.0
  H  H273  1  0.20511000  0.38563000  0.36457000  1.0
  H  H274  1  0.19491000  0.42188000  0.33037000  1.0
  H  H275  1  0.15797000  0.38002000  0.40727000  1.0
  H  H276  1  0.12367000  0.34716000  0.37946000  1.0
  H  H277  1  0.05966000  0.39120000  0.39221000  1.0
  H  H278  1  0.09015000  0.38092000  0.43609000  1.0
  H  H279  1  0.12417000  0.44800000  0.43388000  1.0
  H  H280  1  0.06294000  0.45760000  0.36144000  1.0
  H  H281  1  0.09530000  0.49681000  0.38347000  1.0
  H  H282  1  0.13132000  0.46271000  0.33093000  1.0
  H  H283  1  0.16108000  0.45744000  0.37599000  1.0
  H  H284  1  0.13436000  0.03715000  0.87676000  1.0
  H  H285  1  0.10307000  0.11729000  0.84510000  1.0
  H  H286  1  0.13062000  0.07580000  0.82286000  1.0
  H  H287  1  0.11424000  0.11394000  0.91977000  1.0
  H  H288  1  0.15670000  0.07588000  0.92828000  1.0
  H  H289  1  0.11024000  0.02852000  0.95216000  1.0
  H  H290  1  0.10001000  0.07587000  0.97337000  1.0
  H  H291  1  0.03857000  0.09161000  0.92618000  1.0
  H  H292  1  0.05454000  0.00258000  0.89796000  1.0
  H  H293  1  0.01052000  0.03631000  0.88364000  1.0
  H  H294  1  0.07011000  0.03472000  0.84002000  1.0
  H  H295  1  0.05099000  0.08327000  0.85784000  1.0
  H  H296  1  0.90555000  0.91309000  0.14085000  1.0
  H  H297  1  0.82450000  0.91889000  0.08953000  1.0
  H  H298  1  0.83229000  0.95460000  0.12666000  1.0
  H  H299  1  0.87788000  0.88948000  0.06001000  1.0
  H  H300  1  0.89724000  0.85676000  0.09730000  1.0
  H  H301  1  0.96908000  0.88370000  0.09888000  1.0
  H  H302  1  0.95093000  0.86437000  0.05263000  1.0
  H  H303  1  0.92183000  0.93794000  0.03727000  1.0
  H  H304  1  0.97317000  0.95456000  0.11395000  1.0
  H  H305  1  0.95376000  0.99295000  0.08101000  1.0
  H  H306  1  0.90213000  0.98261000  0.12970000  1.0
  H  H307  1  0.88123000  0.97414000  0.08148000  1.0
  H  H308  1  0.64242000  0.88757000  0.36262000  1.0
  H  H309  1  0.59818000  0.88333000  0.28419000  1.0
  H  H310  1  0.62443000  0.84269000  0.31265000  1.0
  H  H311  1  0.59387000  0.95095000  0.31401000  1.0
  H  H312  1  0.64666000  0.95350000  0.33740000  1.0
  H  H313  1  0.62305000  0.96328000  0.39740000  1.0
  H  H314  1  0.58333000  0.99186000  0.36769000  1.0
  H  H315  1  0.52840000  0.94818000  0.37453000  1.0
  H  H316  1  0.58913000  0.87929000  0.40953000  1.0
  H  H317  1  0.53317000  0.87874000  0.39268000  1.0
  H  H318  1  0.57640000  0.84639000  0.34934000  1.0
  H  H319  1  0.55011000  0.89131000  0.32875000  1.0
  H  H320  1  0.62296000  0.58280000  0.87468000  1.0
  H  H321  1  0.60477000  0.67014000  0.89873000  1.0
  H  H322  1  0.58350000  0.65377000  0.85463000  1.0
  H  H323  1  0.60798000  0.62821000  0.94820000  1.0
  H  H324  1  0.65694000  0.60374000  0.93454000  1.0
  H  H325  1  0.62815000  0.53581000  0.93861000  1.0
  H  H326  1  0.61874000  0.56485000  0.98130000  1.0
  H  H327  1  0.54395000  0.58115000  0.95868000  1.0
  H  H328  1  0.56318000  0.53056000  0.88654000  1.0
  H  H329  1  0.51246000  0.55490000  0.89734000  1.0
  H  H330  1  0.54873000  0.59553000  0.85489000  1.0
  H  H331  1  0.54040000  0.62186000  0.89921000  1.0
  H  H332  1  0.83137000  0.69049000  0.36737000  1.0
  H  H333  1  0.89191000  0.75780000  0.35966000  1.0
  H  H334  1  0.84042000  0.76483000  0.37607000  1.0
  H  H335  1  0.92377000  0.68947000  0.35002000  1.0
  H  H336  1  0.87948000  0.67271000  0.31920000  1.0
  H  H337  1  0.86701000  0.61700000  0.36374000  1.0
  H  H338  1  0.92061000  0.61357000  0.34845000  1.0
  H  H339  1  0.94771000  0.64816000  0.40841000  1.0
  H  H340  1  0.85508000  0.64533000  0.43185000  1.0
  H  H341  1  0.90049000  0.66504000  0.45917000  1.0
  H  H342  1  0.85271000  0.72008000  0.42808000  1.0
  H  H343  1  0.90691000  0.72018000  0.41624000  1.0
  H  H344  1  0.83655000  0.82418000  0.93842000  1.0
  H  H345  1  0.75701000  0.85231000  0.89579000  1.0
  H  H346  1  0.76647000  0.81066000  0.92601000  1.0
  H  H347  1  0.83408000  0.87095000  0.86633000  1.0
  H  H348  1  0.86327000  0.82336000  0.87783000  1.0
  H  H349  1  0.90699000  0.85482000  0.92843000  1.0
  H  H350  1  0.91114000  0.87952000  0.88399000  1.0
  H  H351  1  0.85864000  0.93570000  0.90357000  1.0
  H  H352  1  0.86508000  0.89014000  0.98041000  1.0
  H  H353  1  0.83516000  0.93690000  0.96901000  1.0
  H  H354  1  0.78998000  0.87577000  0.96455000  1.0
  H  H355  1  0.78888000  0.90451000  0.92198000  1.0
  H  H356  1  0.60967000  0.71249000  0.12679000  1.0
  H  H357  1  0.69430000  0.68578000  0.09834000  1.0
  H  H358  1  0.68904000  0.68094000  0.14626000  1.0
  H  H359  1  0.64329000  0.68579000  0.05442000  1.0
  H  H360  1  0.59932000  0.71894000  0.06360000  1.0
  H  H361  1  0.55086000  0.66363000  0.06123000  1.0
  H  H362  1  0.58576000  0.65118000  0.02473000  1.0
  H  H363  1  0.63425000  0.61022000  0.07232000  1.0
  H  H364  1  0.55745000  0.63440000  0.11998000  1.0
  H  H365  1  0.59457000  0.59268000  0.13223000  1.0
  H  H366  1  0.61737000  0.65676000  0.16394000  1.0
  H  H367  1  0.65344000  0.63040000  0.13409000  1.0
  H  H368  1  0.82566000  0.60106000  0.62389000  1.0
  H  H369  1  0.87711000  0.60485000  0.69879000  1.0
  H  H370  1  0.83542000  0.57122000  0.69482000  1.0
  H  H371  1  0.91752000  0.61241000  0.65100000  1.0
  H  H372  1  0.88093000  0.64704000  0.62570000  1.0
  H  H373  1  0.88590000  0.60634000  0.56592000  1.0
  H  H374  1  0.93884000  0.61451000  0.58676000  1.0
  H  H375  1  0.94176000  0.54609000  0.61613000  1.0
  H  H376  1  0.85324000  0.53936000  0.57308000  1.0
  H  H377  1  0.88350000  0.49852000  0.59741000  1.0
  H  H378  1  0.83103000  0.53112000  0.63834000  1.0
  H  H379  1  0.88511000  0.53517000  0.65790000  1.0
  H  H380  1  0.64605000  0.83194000  0.64670000  1.0
  H  H381  1  0.62139000  0.83792000  0.72431000  1.0
  H  H382  1  0.66972000  0.86186000  0.72157000  1.0
  H  H383  1  0.57323000  0.87379000  0.68488000  1.0
  H  H384  1  0.57536000  0.82298000  0.66422000  1.0
  H  H385  1  0.57866000  0.84907000  0.60094000  1.0
  H  H386  1  0.53438000  0.87428000  0.62321000  1.0
  H  H387  1  0.57645000  0.93499000  0.64042000  1.0
  H  H388  1  0.64923000  0.89014000  0.59932000  1.0
  H  H389  1  0.64919000  0.94099000  0.62027000  1.0
  H  H390  1  0.68790000  0.88960000  0.66153000  1.0
  H  H391  1  0.64368000  0.91555000  0.68322000  1.0
  C  C392  1  0.20432000  0.83167000  0.77546000  1.0
  C  C393  1  0.17865000  0.85558000  0.79814000  1.0
  C  C394  1  0.32983000  0.80977000  0.78623000  1.0
  C  C395  1  0.35215000  0.78972000  0.81640000  1.0
  C  C396  1  0.19898000  0.81649000  0.68832000  1.0
  C  C397  1  0.16892000  0.79533000  0.66459000  1.0
  C  C398  1  0.33786000  0.82663000  0.70668000  1.0
  C  C399  1  0.36634000  0.84646000  0.68734000  1.0
  C  C400  1  0.24634000  0.75700000  0.69056000  1.0
  C  C401  1  0.21572000  0.73539000  0.66722000  1.0
  C  C402  1  0.28365000  0.87895000  0.69022000  1.0
  C  C403  1  0.31013000  0.89360000  0.66322000  1.0
  C  C404  1  0.27959000  0.75643000  0.77921000  1.0
  C  C405  1  0.30055000  0.73759000  0.81143000  1.0
  C  C406  1  0.25412000  0.88562000  0.77546000  1.0
  C  C407  1  0.22816000  0.90975000  0.79834000  1.0
  C  C408  1  0.24034000  0.84760000  0.76068000  1.0
  C  C409  1  0.18882000  0.89574000  0.80736000  1.0
  C  C410  1  0.29389000  0.79303000  0.76553000  1.0
  C  C411  1  0.33717000  0.75409000  0.83053000  1.0
  C  C412  1  0.23667000  0.79662000  0.70494000  1.0
  C  C413  1  0.17499000  0.75322000  0.65585000  1.0
  C  C414  1  0.29677000  0.84347000  0.71129000  1.0
  C  C415  1  0.35166000  0.87573000  0.66088000  1.0
  C  C416  1  0.26704000  0.81978000  0.73508000  1.0
  C  C417  1  0.73344000  0.11175000  0.22432000  1.0
  C  C418  1  0.75352000  0.08352000  0.20103000  1.0
  C  C419  1  0.71652000  0.23788000  0.22054000  1.0
  C  C420  1  0.69449000  0.25494000  0.18808000  1.0
  C  C421  1  0.72282000  0.11573000  0.30751000  1.0
  C  C422  1  0.70169000  0.09518000  0.33358000  1.0
  C  C423  1  0.75731000  0.24234000  0.30770000  1.0
  C  C424  1  0.78916000  0.26309000  0.33122000  1.0
  C  C425  1  0.66527000  0.16763000  0.30330000  1.0
  C  C426  1  0.64416000  0.14658000  0.32930000  1.0
  C  C427  1  0.80212000  0.18125000  0.30982000  1.0
  C  C428  1  0.83351000  0.20158000  0.33244000  1.0
  C  C429  1  0.66402000  0.18673000  0.21988000  1.0
  C  C430  1  0.64167000  0.20425000  0.18816000  1.0
  C  C431  1  0.79551000  0.15292000  0.22791000  1.0
  C  C432  1  0.81646000  0.12336000  0.20624000  1.0
  C  C433  1  0.75455000  0.14654000  0.23956000  1.0
  C  C434  1  0.79508000  0.08909000  0.19169000  1.0
  C  C435  1  0.70200000  0.20322000  0.23736000  1.0
  C  C436  1  0.65704000  0.23804000  0.17102000  1.0
  C  C437  1  0.70570000  0.15315000  0.29248000  1.0
  C  C438  1  0.66520000  0.11347000  0.34796000  1.0
  C  C439  1  0.76461000  0.20169000  0.29379000  1.0
  C  C440  1  0.82906000  0.24338000  0.34260000  1.0
  C  C441  1  0.73168000  0.17739000  0.26616000  1.0
  C  C442  1  0.20368000  0.30020000  0.26575000  1.0
  C  C443  1  0.18165000  0.32529000  0.29270000  1.0
  C  C444  1  0.33723000  0.26741000  0.26581000  1.0
  C  C445  1  0.36125000  0.24247000  0.29115000  1.0
  C  C446  1  0.20290000  0.27543000  0.17879000  1.0
  C  C447  1  0.17987000  0.25514000  0.14988000  1.0
  C  C448  1  0.33521000  0.28851000  0.18343000  1.0
  C  C449  1  0.35585000  0.30471000  0.15411000  1.0
  C  C450  1  0.25971000  0.22329000  0.17602000  1.0
  C  C451  1  0.23657000  0.20302000  0.14653000  1.0
  C  C452  1  0.28191000  0.34388000  0.17910000  1.0
  C  C453  1  0.30202000  0.35942000  0.14868000  1.0
  C  C454  1  0.28166000  0.21835000  0.26032000  1.0
  C  C455  1  0.30538000  0.19390000  0.28620000  1.0
  C  C456  1  0.25881000  0.34819000  0.26613000  1.0
  C  C457  1  0.23742000  0.37263000  0.29242000  1.0
  C  C458  1  0.24211000  0.31214000  0.25058000  1.0
  C  C459  1  0.19788000  0.36305000  0.30621000  1.0
  C  C460  1  0.29711000  0.25567000  0.24955000  1.0
  C  C461  1  0.34416000  0.20706000  0.30331000  1.0
  C  C462  1  0.24234000  0.25917000  0.19379000  1.0
  C  C463  1  0.19593000  0.21862000  0.13379000  1.0
  C  C464  1  0.29770000  0.30775000  0.19711000  1.0
  C  C465  1  0.33861000  0.33935000  0.13519000  1.0
  C  C466  1  0.26947000  0.28426000  0.22313000  1.0
  C  C467  1  0.25489000  0.11324000  0.74056000  1.0
  C  C468  1  0.27978000  0.08590000  0.71975000  1.0
  C  C469  1  0.24002000  0.23872000  0.73911000  1.0
  C  C470  1  0.21662000  0.26321000  0.71180000  1.0
  C  C471  1  0.23347000  0.11425000  0.82344000  1.0
  C  C472  1  0.20755000  0.09397000  0.84657000  1.0
  C  C473  1  0.26843000  0.23963000  0.82659000  1.0
  C  C474  1  0.29807000  0.26035000  0.85076000  1.0
  C  C475  1  0.18935000  0.17579000  0.82946000  1.0
  C  C476  1  0.16679000  0.15660000  0.85575000  1.0
  C  C477  1  0.31392000  0.17852000  0.83143000  1.0
  C  C478  1  0.34292000  0.19873000  0.85592000  1.0
  C  C479  1  0.18278000  0.19248000  0.73689000  1.0
  C  C480  1  0.16008000  0.21614000  0.70882000  1.0
  C  C481  1  0.31364000  0.15834000  0.74840000  1.0
  C  C482  1  0.33933000  0.12985000  0.73066000  1.0
  C  C483  1  0.27304000  0.14819000  0.75810000  1.0
  C  C484  1  0.32307000  0.09302000  0.71660000  1.0
  C  C485  1  0.22177000  0.20501000  0.75492000  1.0
  C  C486  1  0.17484000  0.25374000  0.69803000  1.0
  C  C487  1  0.22117000  0.15403000  0.81042000  1.0
  C  C488  1  0.17030000  0.11393000  0.85829000  1.0
  C  C489  1  0.27833000  0.19979000  0.81311000  1.0
  C  C490  1  0.33738000  0.24076000  0.86328000  1.0
  C  C491  1  0.24811000  0.17704000  0.78401000  1.0
  C  C492  1  0.69601000  0.81968000  0.25045000  1.0
  C  C493  1  0.66086000  0.84158000  0.25852000  1.0
  C  C494  1  0.83042000  0.80940000  0.26816000  1.0
  C  C495  1  0.85283000  0.79111000  0.29968000  1.0
  C  C496  1  0.69685000  0.80376000  0.17130000  1.0
  C  C497  1  0.67305000  0.77533000  0.14838000  1.0
  C  C498  1  0.82688000  0.83616000  0.18428000  1.0
  C  C499  1  0.84614000  0.86034000  0.15958000  1.0
  C  C500  1  0.76042000  0.76014000  0.17053000  1.0
  C  C501  1  0.73899000  0.73576000  0.14329000  1.0
  C  C502  1  0.76572000  0.88368000  0.18322000  1.0
  C  C503  1  0.78443000  0.90719000  0.15760000  1.0
  C  C504  1  0.77970000  0.75673000  0.26591000  1.0
  C  C505  1  0.80127000  0.73931000  0.29896000  1.0
  C  C506  1  0.73803000  0.87768000  0.26681000  1.0
  C  C507  1  0.70460000  0.89339000  0.28890000  1.0
  C  C508  1  0.73247000  0.84021000  0.24583000  1.0
  C  C509  1  0.66495000  0.87417000  0.28422000  1.0
  C  C510  1  0.79369000  0.79244000  0.24963000  1.0
  C  C511  1  0.83884000  0.75592000  0.31627000  1.0
  C  C512  1  0.73930000  0.79302000  0.18763000  1.0
  C  C513  1  0.69415000  0.73948000  0.13530000  1.0
  C  C514  1  0.78736000  0.84830000  0.19805000  1.0
  C  C515  1  0.82511000  0.89621000  0.14582000  1.0
  C  C516  1  0.76391000  0.81833000  0.22032000  1.0
  C  C517  1  0.75074000  0.64375000  0.73461000  1.0
  C  C518  1  0.77276000  0.62169000  0.70648000  1.0
  C  C519  1  0.73864000  0.76523000  0.72997000  1.0
  C  C520  1  0.71692000  0.79738000  0.71108000  1.0
  C  C521  1  0.71465000  0.64886000  0.82101000  1.0
  C  C522  1  0.68570000  0.63391000  0.84622000  1.0
  C  C523  1  0.73370000  0.77580000  0.81414000  1.0
  C  C524  1  0.74318000  0.80269000  0.84359000  1.0
  C  C525  1  0.66935000  0.70946000  0.81281000  1.0
  C  C526  1  0.64371000  0.69672000  0.83976000  1.0
  C  C527  1  0.79635000  0.73367000  0.83177000  1.0
  C  C528  1  0.80705000  0.76256000  0.86175000  1.0
  C  C529  1  0.67301000  0.72990000  0.73070000  1.0
  C  C530  1  0.65088000  0.76309000  0.71298000  1.0
  C  C531  1  0.80694000  0.69082000  0.74192000  1.0
  C  C532  1  0.82827000  0.66947000  0.71301000  1.0
  C  C533  1  0.76813000  0.67796000  0.75461000  1.0
  C  C534  1  0.81313000  0.63304000  0.69600000  1.0
  C  C535  1  0.71607000  0.73343000  0.74452000  1.0
  C  C536  1  0.67239000  0.79851000  0.70676000  1.0
  C  C537  1  0.70580000  0.68645000  0.80192000  1.0
  C  C538  1  0.64905000  0.65793000  0.85509000  1.0
  C  C539  1  0.75889000  0.73984000  0.80702000  1.0
  C  C540  1  0.77987000  0.79763000  0.86800000  1.0
  C  C541  1  0.73833000  0.70778000  0.77753000  1.0
  C  C542  1  0.91530000  0.06838000  0.05188000  1.0
  C  C543  1  0.91710000  0.93356000  0.93836000  1.0
  C  C544  1  0.98717000  0.93174000  0.03426000  1.0
  C  C545  1  0.11251000  0.93292000  0.97587000  1.0
  C  C546  1  0.02201000  0.04569000  0.96120000  1.0
  C  C547  1  0.08350000  0.06753000  0.06481000  1.0
  C  C548  1  0.55679000  0.94876000  0.43101000  1.0
  C  C549  1  0.43001000  0.07334000  0.43055000  1.0
  C  C550  1  0.55131000  0.05617000  0.49108000  1.0
  C  C551  1  0.44819000  0.06227000  0.57661000  1.0
  C  C552  1  0.45469000  0.93621000  0.51257000  1.0
  C  C553  1  0.57502000  0.92904000  0.58090000  1.0
  C  C554  1  0.42668000  0.41704000  0.93877000  1.0
  C  C555  1  0.58214000  0.40670000  0.07209000  1.0
  C  C556  1  0.45028000  0.47517000  0.04275000  1.0
  C  C557  1  0.58256000  0.57328000  0.06233000  1.0
  C  C558  1  0.54726000  0.51683000  0.96103000  1.0
  C  C559  1  0.41796000  0.58675000  0.93167000  1.0
  C  C560  1  0.07677000  0.57769000  0.57299000  1.0
  C  C561  1  0.92772000  0.58895000  0.42288000  1.0
  C  C562  1  0.94391000  0.53119000  0.55692000  1.0
  C  C563  1  0.92418000  0.42147000  0.43505000  1.0
  C  C564  1  0.05879000  0.46415000  0.44465000  1.0
  C  C565  1  0.07725000  0.41456000  0.58203000  1.0
  C  C566  1  0.15501000  0.92426000  0.82240000  1.0
  C  C567  1  0.17291000  0.94203000  0.88829000  1.0
  C  C568  1  0.16498000  0.93579000  0.92957000  1.0
  C  C569  1  0.11739000  0.93980000  0.93525000  1.0
  C  C570  1  0.09173000  0.91138000  0.90810000  1.0
  C  C571  1  0.10101000  0.92030000  0.86740000  1.0
  C  C572  1  0.66266000  0.11201000  0.38986000  1.0
  C  C573  1  0.62863000  0.05527000  0.41440000  1.0
  C  C574  1  0.59291000  0.04097000  0.43664000  1.0
  C  C575  1  0.58470000  0.07143000  0.46895000  1.0
  C  C576  1  0.56950000  0.11180000  0.45096000  1.0
  C  C577  1  0.60612000  0.12713000  0.43066000  1.0
  C  C578  1  0.35256000  0.74280000  0.87120000  1.0
  C  C579  1  0.40909000  0.68810000  0.87388000  1.0
  C  C580  1  0.42118000  0.64267000  0.88237000  1.0
  C  C581  1  0.40934000  0.63148000  0.92218000  1.0
  C  C582  1  0.36249000  0.64444000  0.92713000  1.0
  C  C583  1  0.35312000  0.68952000  0.91738000  1.0
  C  C584  1  0.86910000  0.26175000  0.36524000  1.0
  C  C585  1  0.86710000  0.31465000  0.41689000  1.0
  C  C586  1  0.87404000  0.35987000  0.43074000  1.0
  C  C587  1  0.91797000  0.37567000  0.42255000  1.0
  C  C588  1  0.92494000  0.36552000  0.38041000  1.0
  C  C589  1  0.91580000  0.32033000  0.36829000  1.0
  C  C590  1  0.37656000  0.86957000  0.62617000  1.0
  C  C591  1  0.38879000  0.93510000  0.59817000  1.0
  C  C592  1  0.40434000  0.95345000  0.56220000  1.0
  C  C593  1  0.43184000  0.92129000  0.54329000  1.0
  C  C594  1  0.40423000  0.88777000  0.52837000  1.0
  C  C595  1  0.39038000  0.86707000  0.56237000  1.0
  C  C596  1  0.64070000  0.24790000  0.13004000  1.0
  C  C597  1  0.63645000  0.32242000  0.13701000  1.0
  C  C598  1  0.61145000  0.36262000  0.12702000  1.0
  C  C599  1  0.60114000  0.36487000  0.08411000  1.0
  C  C600  1  0.57313000  0.32872000  0.07209000  1.0
  C  C601  1  0.59655000  0.28766000  0.08381000  1.0
  C  C602  1  0.13464000  0.72709000  0.65006000  1.0
  C  C603  1  0.15199000  0.66579000  0.61020000  1.0
  C  C604  1  0.13455000  0.63278000  0.58115000  1.0
  C  C605  1  0.09063000  0.61956000  0.59130000  1.0
  C  C606  1  0.06108000  0.65820000  0.58516000  1.0
  C  C607  1  0.07705000  0.69432000  0.61186000  1.0
  C  C608  1  0.81496000  0.05944000  0.16426000  1.0
  C  C609  1  0.84663000  0.10774000  0.12493000  1.0
  C  C610  1  0.86373000  0.11290000  0.08662000  1.0
  C  C611  1  0.87695000  0.07021000  0.07343000  1.0
  C  C612  1  0.83626000  0.04897000  0.06032000  1.0
  C  C613  1  0.81431000  0.04155000  0.09696000  1.0
  C  C614  1  0.17026000  0.20323000  0.09928000  1.0
  C  C615  1  0.17090000  0.13043000  0.11604000  1.0
  C  C616  1  0.15312000  0.08925000  0.10161000  1.0
  C  C617  1  0.11486000  0.09949000  0.07419000  1.0
  C  C618  1  0.13260000  0.11661000  0.03909000  1.0
  C  C619  1  0.14877000  0.15807000  0.04979000  1.0
  C  C620  1  0.35366000  0.05858000  0.70645000  1.0
  C  C621  1  0.39368000  0.10138000  0.66537000  1.0
  C  C622  1  0.41268000  0.10371000  0.62680000  1.0
  C  C623  1  0.44164000  0.06612000  0.61812000  1.0
  C  C624  1  0.42158000  0.02664000  0.62827000  1.0
  C  C625  1  0.40413000  0.02818000  0.66676000  1.0
  C  C626  1  0.35137000  0.34622000  0.09524000  1.0
  C  C627  1  0.41145000  0.39111000  0.10662000  1.0
  C  C628  1  0.43093000  0.43147000  0.09673000  1.0
  C  C629  1  0.43053000  0.43620000  0.05345000  1.0
  C  C630  1  0.38485000  0.43192000  0.03560000  1.0
  C  C631  1  0.36753000  0.39140000  0.04666000  1.0
  C  C632  1  0.14102000  0.28787000  0.68730000  1.0
  C  C633  1  0.10573000  0.30247000  0.62320000  1.0
  C  C634  1  0.09449000  0.33467000  0.59126000  1.0
  C  C635  1  0.09222000  0.37868000  0.60829000  1.0
  C  C636  1  0.13665000  0.38460000  0.62784000  1.0
  C  C637  1  0.14474000  0.35546000  0.66122000  1.0
  C  C638  1  0.35743000  0.19400000  0.34250000  1.0
  C  C639  1  0.41047000  0.13703000  0.34148000  1.0
  C  C640  1  0.42690000  0.09782000  0.36203000  1.0
  C  C641  1  0.41160000  0.10186000  0.40188000  1.0
  C  C642  1  0.36347000  0.09963000  0.39851000  1.0
  C  C643  1  0.34667000  0.13947000  0.38270000  1.0
  C  C644  1  0.37861000  0.26273000  0.87182000  1.0
  C  C645  1  0.38623000  0.30574000  0.92959000  1.0
  C  C646  1  0.39239000  0.34911000  0.94713000  1.0
  C  C647  1  0.42354000  0.37316000  0.92575000  1.0
  C  C648  1  0.41062000  0.37211000  0.88346000  1.0
  C  C649  1  0.40831000  0.32829000  0.86905000  1.0
  C  C650  1  0.18292000  0.39250000  0.33932000  1.0
  C  C651  1  0.12921000  0.37981000  0.38677000  1.0
  C  C652  1  0.09017000  0.39749000  0.40906000  1.0
  C  C653  1  0.09243000  0.44402000  0.41814000  1.0
  C  C654  1  0.09294000  0.46328000  0.37923000  1.0
  C  C655  1  0.13240000  0.44685000  0.35843000  1.0
  C  C656  1  0.12860000  0.09282000  0.85038000  1.0
  C  C657  1  0.12227000  0.08057000  0.91808000  1.0
  C  C658  1  0.09643000  0.05934000  0.94610000  1.0
  C  C659  1  0.04916000  0.05921000  0.93152000  1.0
  C  C660  1  0.04471000  0.03501000  0.89459000  1.0
  C  C661  1  0.07028000  0.05489000  0.86580000  1.0
  C  C662  1  0.84264000  0.92344000  0.11762000  1.0
  C  C663  1  0.90017000  0.88756000  0.08612000  1.0
  C  C664  1  0.94555000  0.88914000  0.07403000  1.0
  C  C665  1  0.95002000  0.93125000  0.05788000  1.0
  C  C666  1  0.94843000  0.96200000  0.09065000  1.0
  C  C667  1  0.90345000  0.96140000  0.10465000  1.0
  C  C668  1  0.62534000  0.87600000  0.30554000  1.0
  C  C669  1  0.61438000  0.94113000  0.33940000  1.0
  C  C670  1  0.59634000  0.96081000  0.37529000  1.0
  C  C671  1  0.55904000  0.93844000  0.39062000  1.0
  C  C672  1  0.56420000  0.89248000  0.38834000  1.0
  C  C673  1  0.57627000  0.88034000  0.35016000  1.0
  C  C674  1  0.61054000  0.64653000  0.87625000  1.0
  C  C675  1  0.62152000  0.60204000  0.93149000  1.0
  C  C676  1  0.60963000  0.56231000  0.95029000  1.0
  C  C677  1  0.56123000  0.55553000  0.94414000  1.0
  C  C678  1  0.54782000  0.55670000  0.90180000  1.0
  C  C679  1  0.55955000  0.59669000  0.88561000  1.0
  C  C680  1  0.85933000  0.74539000  0.35653000  1.0
  C  C681  1  0.89194000  0.67561000  0.34938000  1.0
  C  C682  1  0.89826000  0.63184000  0.36569000  1.0
  C  C683  1  0.91686000  0.63252000  0.40721000  1.0
  C  C684  1  0.88587000  0.66011000  0.42977000  1.0
  C  C685  1  0.87699000  0.70303000  0.41165000  1.0
  C  C686  1  0.78068000  0.82672000  0.90314000  1.0
  C  C687  1  0.85041000  0.85265000  0.88972000  1.0
  C  C688  1  0.88931000  0.87454000  0.90657000  1.0
  C  C689  1  0.87617000  0.91540000  0.92492000  1.0
  C  C690  1  0.84745000  0.90729000  0.95689000  1.0
  C  C691  1  0.80920000  0.88313000  0.94062000  1.0
  C  C692  1  0.67545000  0.69881000  0.12141000  1.0
  C  C693  1  0.61513000  0.68893000  0.07166000  1.0
  C  C694  1  0.58464000  0.65452000  0.05604000  1.0
  C  C695  1  0.59922000  0.61431000  0.07538000  1.0
  C  C696  1  0.59052000  0.62180000  0.11656000  1.0
  C  C697  1  0.62350000  0.65040000  0.13382000  1.0
  C  C698  1  0.84603000  0.59965000  0.68252000  1.0
  C  C699  1  0.89052000  0.61408000  0.62864000  1.0
  C  C700  1  0.90909000  0.59833000  0.59026000  1.0
  C  C701  1  0.91982000  0.55168000  0.59028000  1.0
  C  C702  1  0.87777000  0.53219000  0.59665000  1.0
  C  C703  1  0.86119000  0.54677000  0.63521000  1.0
  C  C704  1  0.64867000  0.83941000  0.70607000  1.0
  C  C705  1  0.58712000  0.85431000  0.66219000  1.0
  C  C706  1  0.56991000  0.87102000  0.62387000  1.0
  C  C707  1  0.58812000  0.91284000  0.61864000  1.0
  C  C708  1  0.63676000  0.90996000  0.62242000  1.0
  C  C709  1  0.65236000  0.89282000  0.66072000  1.0
  N  N710  1  0.14728000  0.91513000  0.86213000  1.0
  N  N711  1  0.62145000  0.09789000  0.40135000  1.0
  N  N712  1  0.36311000  0.69855000  0.87820000  1.0
  N  N713  1  0.87235000  0.30693000  0.37572000  1.0
  N  N714  1  0.36995000  0.89422000  0.59153000  1.0
  N  N715  1  0.61269000  0.28579000  0.12468000  1.0
  N  N716  1  0.12386000  0.70354000  0.61332000  1.0
  N  N717  1  0.81330000  0.07645000  0.12541000  1.0
  N  N718  1  0.17736000  0.16042000  0.08568000  1.0
  N  N719  1  0.37241000  0.06248000  0.66963000  1.0
  N  N720  1  0.36760000  0.38705000  0.08836000  1.0
  N  N721  1  0.14329000  0.31108000  0.65097000  1.0
  N  N722  1  0.36433000  0.14917000  0.34627000  1.0
  N  N723  1  0.37652000  0.30540000  0.88771000  1.0
  N  N724  1  0.13735000  0.40146000  0.35123000  1.0
  N  N725  1  0.11551000  0.06413000  0.87865000  1.0
  N  N726  1  0.88977000  0.92024000  0.11455000  1.0
  N  N727  1  0.61822000  0.89632000  0.34190000  1.0
  N  N728  1  0.60608000  0.60453000  0.89060000  1.0
  N  N729  1  0.86190000  0.70221000  0.37037000  1.0
  N  N730  1  0.82111000  0.84475000  0.91912000  1.0
  N  N731  1  0.62862000  0.68981000  0.11390000  1.0
  N  N732  1  0.85322000  0.59187000  0.64069000  1.0
  N  N733  1  0.63455000  0.85269000  0.66701000  1.0
  O  O734  1  0.94978000  0.08178000  0.07012000  1.0
  O  O735  1  0.01065000  0.96312000  0.03110000  1.0
  O  O736  1  0.92382000  0.03802000  0.02889000  1.0
  O  O737  1  0.98462000  0.90841000  0.00398000  1.0
  O  O738  1  0.94132000  0.91695000  0.96586000  1.0
  O  O739  1  0.93874000  0.95385000  0.91549000  1.0
  O  O740  1  0.99431000  0.01722000  0.95670000  1.0
  O  O741  1  0.01920000  0.06908000  0.99082000  1.0
  O  O742  1  0.06215000  0.06925000  0.03202000  1.0
  O  O743  1  0.06289000  0.04932000  0.09021000  1.0
  O  O744  1  0.58824000  0.93892000  0.45656000  1.0
  O  O745  1  0.56254000  0.03332000  0.51993000  1.0
  O  O746  1  0.52235000  0.96565000  0.44412000  1.0
  O  O747  1  0.51522000  0.05069000  0.47216000  1.0
  O  O748  1  0.45749000  0.08652000  0.45689000  1.0
  O  O749  1  0.41023000  0.04146000  0.44038000  1.0
  O  O750  1  0.41662000  0.06629000  0.55023000  1.0
  O  O751  1  0.43764000  0.96250000  0.48849000  1.0
  O  O752  1  0.49211000  0.91980000  0.50890000  1.0
  O  O753  1  0.48196000  0.04306000  0.56443000  1.0
  O  O754  1  0.56863000  0.90614000  0.55047000  1.0
  O  O755  1  0.57308000  0.96801000  0.57479000  1.0
  O  O756  1  0.39821000  0.44667000  0.92976000  1.0
  O  O757  1  0.42811000  0.50129000  0.02080000  1.0
  O  O758  1  0.46239000  0.43044000  0.95419000  1.0
  O  O759  1  0.48072000  0.48948000  0.06586000  1.0
  O  O760  1  0.57771000  0.43822000  0.09526000  1.0
  O  O761  1  0.57488000  0.41723000  0.03672000  1.0
  O  O762  1  0.60605000  0.53967000  0.06864000  1.0
  O  O763  1  0.57411000  0.49615000  0.98393000  1.0
  O  O764  1  0.51747000  0.49627000  0.94238000  1.0
  O  O765  1  0.54305000  0.56560000  0.05159000  1.0
  O  O766  1  0.42259000  0.55633000  0.90726000  1.0
  O  O767  1  0.42371000  0.57484000  0.96665000  1.0
  O  O768  1  0.08261000  0.54318000  0.59085000  1.0
  O  O769  1  0.97482000  0.50379000  0.56653000  1.0
  O  O770  1  0.05761000  0.57051000  0.53942000  1.0
  O  O771  1  0.93224000  0.53809000  0.52060000  1.0
  O  O772  1  0.90065000  0.56098000  0.42904000  1.0
  O  O773  1  0.96693000  0.57463000  0.43106000  1.0
  O  O774  1  0.91777000  0.45357000  0.41356000  1.0
  O  O775  1  0.02290000  0.48314000  0.43029000  1.0
  O  O776  1  0.07029000  0.46547000  0.48164000  1.0
  O  O777  1  0.94205000  0.43283000  0.46813000  1.0
  O  O778  1  0.10237000  0.44122000  0.56971000  1.0
  O  O779  1  0.03765000  0.42898000  0.57780000  1.0
  O  O780  1  0.07508000  0.93451000  0.98966000  1.0
