# generated using pymatgen
data_ZnH18(C13N3)2
_symmetry_space_group_name_H-M   'P 1'
_cell_length_a   41.63350000
_cell_length_b   53.91760000
_cell_length_c   53.91760000
_cell_angle_alpha   89.99500000
_cell_angle_beta   90.29600000
_cell_angle_gamma   89.70400000
_symmetry_Int_Tables_number   1
_chemical_formula_structural   ZnH18(C13N3)2
_chemical_formula_sum   'Zn16 H288 C416 N96'
_cell_volume   121029.83278614
_cell_formula_units_Z   16
loop_
 _symmetry_equiv_pos_site_id
 _symmetry_equiv_pos_as_xyz
  1  'x, y, z'
loop_
 _atom_site_type_symbol
 _atom_site_label
 _atom_site_symmetry_multiplicity
 _atom_site_fract_x
 _atom_site_fract_y
 _atom_site_fract_z
 _atom_site_occupancy
  Zn  Zn0  1  0.08977000  0.50614000  0.14788000  1.0
  Zn  Zn1  1  0.96747000  0.54833000  0.24762000  1.0
  Zn  Zn2  1  0.58933000  0.84338000  0.54157000  1.0
  Zn  Zn3  1  0.45378000  0.74725000  0.55803000  1.0
  Zn  Zn4  1  0.09399000  0.43121000  0.77672000  1.0
  Zn  Zn5  1  0.96022000  0.47217000  0.86795000  1.0
  Zn  Zn6  1  0.45432000  0.13470000  0.49062000  1.0
  Zn  Zn7  1  0.59088000  0.22408000  0.45194000  1.0
  Zn  Zn8  1  0.59001000  0.47519000  0.15328000  1.0
  Zn  Zn9  1  0.46010000  0.44017000  0.24834000  1.0
  Zn  Zn10  1  0.08590000  0.84702000  0.48681000  1.0
  Zn  Zn11  1  0.95473000  0.75038000  0.45565000  1.0
  Zn  Zn12  1  0.59452000  0.54644000  0.77937000  1.0
  Zn  Zn13  1  0.45974000  0.50341000  0.86819000  1.0
  Zn  Zn14  1  0.08990000  0.22331000  0.56591000  1.0
  Zn  Zn15  1  0.95606000  0.13224000  0.52560000  1.0
  H  H16  1  0.05591000  0.44318000  0.08554000  1.0
  H  H17  1  0.84753000  0.54043000  0.24123000  1.0
  H  H18  1  0.13212000  0.54659000  0.22614000  1.0
  H  H19  1  0.20669000  0.52737000  0.14801000  1.0
  H  H20  1  0.01079000  0.55963000  0.33369000  1.0
  H  H21  1  0.97135000  0.49579000  0.13033000  1.0
  H  H22  1  0.92581000  0.50708000  0.16876000  1.0
  H  H23  1  0.08519000  0.56774000  0.26053000  1.0
  H  H24  1  0.70034000  0.82531000  0.57154000  1.0
  H  H25  1  0.46370000  0.66720000  0.60243000  1.0
  H  H26  1  0.47438000  0.87390000  0.54456000  1.0
  H  H27  1  0.57112000  0.92790000  0.50655000  1.0
  H  H28  1  0.34882000  0.75849000  0.51485000  1.0
  H  H29  1  0.62053000  0.75364000  0.55222000  1.0
  H  H30  1  0.57006000  0.72305000  0.57438000  1.0
  H  H31  1  0.42404000  0.83700000  0.54318000  1.0
  H  H32  1  0.07048000  0.40680000  0.68873000  1.0
  H  H33  1  0.85104000  0.43550000  0.86239000  1.0
  H  H34  1  0.12509000  0.47345000  0.85780000  1.0
  H  H35  1  0.20905000  0.42329000  0.80354000  1.0
  H  H36  1  0.98093000  0.53091000  0.93730000  1.0
  H  H37  1  0.97771000  0.41300000  0.75447000  1.0
  H  H38  1  0.92691000  0.43309000  0.78708000  1.0
  H  H39  1  0.07636000  0.48630000  0.89186000  1.0
  H  H40  1  0.47050000  0.05643000  0.53942000  1.0
  H  H41  1  0.70546000  0.19748000  0.44391000  1.0
  H  H42  1  0.42371000  0.21815000  0.45488000  1.0
  H  H43  1  0.34617000  0.14570000  0.45191000  1.0
  H  H44  1  0.56689000  0.31507000  0.44841000  1.0
  H  H45  1  0.56985000  0.10723000  0.50326000  1.0
  H  H46  1  0.62029000  0.14168000  0.49190000  1.0
  H  H47  1  0.47572000  0.25128000  0.43791000  1.0
  H  H48  1  0.70754000  0.45927000  0.16347000  1.0
  H  H49  1  0.47810000  0.38905000  0.32328000  1.0
  H  H50  1  0.47491000  0.46896000  0.12485000  1.0
  H  H51  1  0.55749000  0.52629000  0.08044000  1.0
  H  H52  1  0.36033000  0.49105000  0.24320000  1.0
  H  H53  1  0.62567000  0.45619000  0.24092000  1.0
  H  H54  1  0.57701000  0.42928000  0.27228000  1.0
  H  H55  1  0.42926000  0.46768000  0.16187000  1.0
  H  H56  1  0.05968000  0.92065000  0.53815000  1.0
  H  H57  1  0.84471000  0.75613000  0.49101000  1.0
  H  H58  1  0.12141000  0.75981000  0.46694000  1.0
  H  H59  1  0.19831000  0.83745000  0.45759000  1.0
  H  H60  1  0.97448000  0.67578000  0.40643000  1.0
  H  H61  1  0.96932000  0.87365000  0.48605000  1.0
  H  H62  1  0.92155000  0.83733000  0.48038000  1.0
  H  H63  1  0.07240000  0.72718000  0.44578000  1.0
  H  H64  1  0.70807000  0.55672000  0.80800000  1.0
  H  H65  1  0.48099000  0.44343000  0.93679000  1.0
  H  H66  1  0.47810000  0.56081000  0.75429000  1.0
  H  H67  1  0.57206000  0.56293000  0.68983000  1.0
  H  H68  1  0.34903000  0.53825000  0.86182000  1.0
  H  H69  1  0.62513000  0.50461000  0.86057000  1.0
  H  H70  1  0.57555000  0.49053000  0.89401000  1.0
  H  H71  1  0.42734000  0.54317000  0.78701000  1.0
  H  H72  1  0.06549000  0.31272000  0.58244000  1.0
  H  H73  1  0.84691000  0.13757000  0.56223000  1.0
  H  H74  1  0.12115000  0.14189000  0.52485000  1.0
  H  H75  1  0.20433000  0.19616000  0.57585000  1.0
  H  H76  1  0.97596000  0.06468000  0.46476000  1.0
  H  H77  1  0.97377000  0.24690000  0.58225000  1.0
  H  H78  1  0.92295000  0.21325000  0.56461000  1.0
  H  H79  1  0.07199000  0.10848000  0.51068000  1.0
  H  H80  1  0.16890000  0.50401000  0.21247000  1.0
  H  H81  1  0.38907000  0.50167000  0.20022000  1.0
  H  H82  1  0.21157000  0.52930000  0.21678000  1.0
  H  H83  1  0.21196000  0.53796000  0.18523000  1.0
  H  H84  1  0.22991000  0.48626000  0.20683000  1.0
  H  H85  1  0.23079000  0.49352000  0.17441000  1.0
  H  H86  1  0.27482000  0.52334000  0.18089000  1.0
  H  H87  1  0.27250000  0.51956000  0.21405000  1.0
  H  H88  1  0.34806000  0.46245000  0.21270000  1.0
  H  H89  1  0.34947000  0.46203000  0.17975000  1.0
  H  H90  1  0.33382000  0.50703000  0.17798000  1.0
  H  H91  1  0.33292000  0.50844000  0.21116000  1.0
  H  H92  1  0.28921000  0.47545000  0.21083000  1.0
  H  H93  1  0.28900000  0.47707000  0.17749000  1.0
  H  H94  1  0.68462000  0.78351000  0.56303000  1.0
  H  H95  1  0.85739000  0.80073000  0.46427000  1.0
  H  H96  1  0.69351000  0.81659000  0.52433000  1.0
  H  H97  1  0.68976000  0.78768000  0.50867000  1.0
  H  H98  1  0.73868000  0.80024000  0.55022000  1.0
  H  H99  1  0.73442000  0.77010000  0.53647000  1.0
  H  H100  1  0.75106000  0.78542000  0.49581000  1.0
  H  H101  1  0.74989000  0.81712000  0.50600000  1.0
  H  H102  1  0.85570000  0.81932000  0.51423000  1.0
  H  H103  1  0.85800000  0.78673000  0.51573000  1.0
  H  H104  1  0.80969000  0.78709000  0.48273000  1.0
  H  H105  1  0.80752000  0.81960000  0.48854000  1.0
  H  H106  1  0.79655000  0.81019000  0.53407000  1.0
  H  H107  1  0.79713000  0.77761000  0.52678000  1.0
  H  H108  1  0.37799000  0.52791000  0.79866000  1.0
  H  H109  1  0.17382000  0.46479000  0.84729000  1.0
  H  H110  1  0.35432000  0.49629000  0.84031000  1.0
  H  H111  1  0.36121000  0.48817000  0.80871000  1.0
  H  H112  1  0.31000000  0.52653000  0.82522000  1.0
  H  H113  1  0.31463000  0.51309000  0.79492000  1.0
  H  H114  1  0.30238000  0.47059000  0.81412000  1.0
  H  H115  1  0.29503000  0.48598000  0.84312000  1.0
  H  H116  1  0.19113000  0.49426000  0.81817000  1.0
  H  H117  1  0.19977000  0.47060000  0.79566000  1.0
  H  H118  1  0.24453000  0.45412000  0.82073000  1.0
  H  H119  1  0.23516000  0.47454000  0.84595000  1.0
  H  H120  1  0.25045000  0.51124000  0.82124000  1.0
  H  H121  1  0.25679000  0.49238000  0.79414000  1.0
  H  H122  1  0.87328000  0.20068000  0.54885000  1.0
  H  H123  1  0.66933000  0.15151000  0.48217000  1.0
  H  H124  1  0.85155000  0.15791000  0.51780000  1.0
  H  H125  1  0.85593000  0.18982000  0.50962000  1.0
  H  H126  1  0.80596000  0.16924000  0.54662000  1.0
  H  H127  1  0.80926000  0.20098000  0.53683000  1.0
  H  H128  1  0.79788000  0.18664000  0.49228000  1.0
  H  H129  1  0.79188000  0.15583000  0.50399000  1.0
  H  H130  1  0.68670000  0.17779000  0.51407000  1.0
  H  H131  1  0.69470000  0.20256000  0.49271000  1.0
  H  H132  1  0.74030000  0.17992000  0.47453000  1.0
  H  H133  1  0.73151000  0.15268000  0.49226000  1.0
  H  H134  1  0.74639000  0.17358000  0.53132000  1.0
  H  H135  1  0.75147000  0.20273000  0.51562000  1.0
  H  H136  1  0.67407000  0.51300000  0.84986000  1.0
  H  H137  1  0.87747000  0.44981000  0.79932000  1.0
  H  H138  1  0.70095000  0.50918000  0.79830000  1.0
  H  H139  1  0.69158000  0.48456000  0.81952000  1.0
  H  H140  1  0.74487000  0.52405000  0.82526000  1.0
  H  H141  1  0.73498000  0.50189000  0.84882000  1.0
  H  H142  1  0.75077000  0.46697000  0.82144000  1.0
  H  H143  1  0.75829000  0.48798000  0.79620000  1.0
  H  H144  1  0.86197000  0.48943000  0.81207000  1.0
  H  H145  1  0.85449000  0.47919000  0.84299000  1.0
  H  H146  1  0.81021000  0.45066000  0.82511000  1.0
  H  H147  1  0.81533000  0.46666000  0.79614000  1.0
  H  H148  1  0.80314000  0.50747000  0.81921000  1.0
  H  H149  1  0.79471000  0.48936000  0.84637000  1.0
  H  H150  1  0.17000000  0.15331000  0.53258000  1.0
  H  H151  1  0.37399000  0.20649000  0.47278000  1.0
  H  H152  1  0.19624000  0.20497000  0.52845000  1.0
  H  H153  1  0.18728000  0.18333000  0.50407000  1.0
  H  H154  1  0.24070000  0.17874000  0.54404000  1.0
  H  H155  1  0.23115000  0.15469000  0.52226000  1.0
  H  H156  1  0.24671000  0.18122000  0.48695000  1.0
  H  H157  1  0.25330000  0.20724000  0.50721000  1.0
  H  H158  1  0.35707000  0.19162000  0.51073000  1.0
  H  H159  1  0.35103000  0.16101000  0.49895000  1.0
  H  H160  1  0.30593000  0.17757000  0.47133000  1.0
  H  H161  1  0.31048000  0.20728000  0.48605000  1.0
  H  H162  1  0.29888000  0.18609000  0.52776000  1.0
  H  H163  1  0.29128000  0.15787000  0.51106000  1.0
  H  H164  1  0.88067000  0.49624000  0.22466000  1.0
  H  H165  1  0.66321000  0.49140000  0.22165000  1.0
  H  H166  1  0.85125000  0.51288000  0.17850000  1.0
  H  H167  1  0.84473000  0.53507000  0.20209000  1.0
  H  H168  1  0.82985000  0.47873000  0.20438000  1.0
  H  H169  1  0.82421000  0.49939000  0.23010000  1.0
  H  H170  1  0.78248000  0.52275000  0.20754000  1.0
  H  H171  1  0.78919000  0.50479000  0.17983000  1.0
  H  H172  1  0.70825000  0.45404000  0.20225000  1.0
  H  H173  1  0.70720000  0.46935000  0.23112000  1.0
  H  H174  1  0.72416000  0.50972000  0.21116000  1.0
  H  H175  1  0.72828000  0.49424000  0.18203000  1.0
  H  H176  1  0.77083000  0.46634000  0.20098000  1.0
  H  H177  1  0.76656000  0.48277000  0.22987000  1.0
  H  H178  1  0.35866000  0.79729000  0.55490000  1.0
  H  H179  1  0.18339000  0.79434000  0.45630000  1.0
  H  H180  1  0.35910000  0.79482000  0.50109000  1.0
  H  H181  1  0.35376000  0.82571000  0.51049000  1.0
  H  H182  1  0.31200000  0.78424000  0.53308000  1.0
  H  H183  1  0.30707000  0.81701000  0.53598000  1.0
  H  H184  1  0.29471000  0.81908000  0.48951000  1.0
  H  H185  1  0.29732000  0.78575000  0.48846000  1.0
  H  H186  1  0.19059000  0.78675000  0.51001000  1.0
  H  H187  1  0.19181000  0.81862000  0.50146000  1.0
  H  H188  1  0.23681000  0.81034000  0.47192000  1.0
  H  H189  1  0.23497000  0.77780000  0.47861000  1.0
  H  H190  1  0.25259000  0.78437000  0.52146000  1.0
  H  H191  1  0.24904000  0.81744000  0.51860000  1.0
  H  H192  1  0.98941000  0.48380000  0.09304000  1.0
  H  H193  1  0.05494000  0.49892000  0.92704000  1.0
  H  H194  1  0.05313000  0.49386000  0.06949000  1.0
  H  H195  1  0.01793000  0.51340000  0.07023000  1.0
  H  H196  1  0.02344000  0.46224000  0.04465000  1.0
  H  H197  1  0.98836000  0.48198000  0.04448000  1.0
  H  H198  1  0.01923000  0.51500000  0.02239000  1.0
  H  H199  1  0.05465000  0.49562000  0.02287000  1.0
  H  H200  1  0.02951000  0.46633000  0.94867000  1.0
  H  H201  1  0.99262000  0.48378000  0.95026000  1.0
  H  H202  1  0.02091000  0.51666000  0.97533000  1.0
  H  H203  1  0.05656000  0.49758000  0.97547000  1.0
  H  H204  1  0.02623000  0.46376000  0.99712000  1.0
  H  H205  1  0.99052000  0.48284000  0.99684000  1.0
  H  H206  1  0.50425000  0.06218000  0.48583000  1.0
  H  H207  1  0.50983000  0.90970000  0.55817000  1.0
  H  H208  1  0.52129000  0.05453000  0.53781000  1.0
  H  H209  1  0.55485000  0.04872000  0.51878000  1.0
  H  H210  1  0.48830000  0.02472000  0.51085000  1.0
  H  H211  1  0.52259000  0.02051000  0.49121000  1.0
  H  H212  1  0.55345000  0.00207000  0.52673000  1.0
  H  H213  1  0.51859000  0.00555000  0.54620000  1.0
  H  H214  1  0.48604000  0.92992000  0.52583000  1.0
  H  H215  1  0.51970000  0.92616000  0.50608000  1.0
  H  H216  1  0.55139000  0.95562000  0.53510000  1.0
  H  H217  1  0.51569000  0.95925000  0.55309000  1.0
  H  H218  1  0.48729000  0.97790000  0.51664000  1.0
  H  H219  1  0.52300000  0.97404000  0.49818000  1.0
  H  H220  1  0.50778000  0.50821000  0.08804000  1.0
  H  H221  1  0.53332000  0.45548000  0.93096000  1.0
  H  H222  1  0.52489000  0.45780000  0.06945000  1.0
  H  H223  1  0.55576000  0.48082000  0.06879000  1.0
  H  H224  1  0.48888000  0.48626000  0.04465000  1.0
  H  H225  1  0.52030000  0.50916000  0.04430000  1.0
  H  H226  1  0.55657000  0.47816000  0.02256000  1.0
  H  H227  1  0.52354000  0.45665000  0.02162000  1.0
  H  H228  1  0.49243000  0.48807000  0.95073000  1.0
  H  H229  1  0.52733000  0.50740000  0.94986000  1.0
  H  H230  1  0.55786000  0.47610000  0.97488000  1.0
  H  H231  1  0.52336000  0.45597000  0.97477000  1.0
  H  H232  1  0.49119000  0.48822000  0.99710000  1.0
  H  H233  1  0.52543000  0.50858000  0.99734000  1.0
  H  H234  1  0.05077000  0.07458000  0.49530000  1.0
  H  H235  1  0.98772000  0.90668000  0.50415000  1.0
  H  H236  1  0.98987000  0.05023000  0.51198000  1.0
  H  H237  1  0.02851000  0.05037000  0.52710000  1.0
  H  H238  1  0.01328000  0.02695000  0.47603000  1.0
  H  H239  1  0.05155000  0.02598000  0.49173000  1.0
  H  H240  1  0.02662000  0.00213000  0.52674000  1.0
  H  H241  1  0.98836000  0.00314000  0.51096000  1.0
  H  H242  1  0.01346000  0.93123000  0.47429000  1.0
  H  H243  1  0.05017000  0.93145000  0.49194000  1.0
  H  H244  1  0.02330000  0.95490000  0.52608000  1.0
  H  H245  1  0.98640000  0.95530000  0.50858000  1.0
  H  H246  1  0.01242000  0.97965000  0.47504000  1.0
  H  H247  1  0.05036000  0.97837000  0.49128000  1.0
  H  H248  1  0.06410000  0.59323000  0.29006000  1.0
  H  H249  1  0.02827000  0.67957000  0.42797000  1.0
  H  H250  1  0.00384000  0.60049000  0.31906000  1.0
  H  H251  1  0.01636000  0.61908000  0.29343000  1.0
  H  H252  1  0.06135000  0.61099000  0.33825000  1.0
  H  H253  1  0.06128000  0.63556000  0.31568000  1.0
  H  H254  1  0.00551000  0.64850000  0.33375000  1.0
  H  H255  1  0.01324000  0.62647000  0.35804000  1.0
  H  H256  1  0.06288000  0.69620000  0.38859000  1.0
  H  H257  1  0.02557000  0.71135000  0.38253000  1.0
  H  H258  1  0.99968000  0.67484000  0.37196000  1.0
  H  H259  1  0.02077000  0.65604000  0.39448000  1.0
  H  H260  1  0.06609000  0.65104000  0.36717000  1.0
  H  H261  1  0.05093000  0.67420000  0.34589000  1.0
  H  H262  1  0.49981000  0.58026000  0.72274000  1.0
  H  H263  1  0.54802000  0.69194000  0.59579000  1.0
  H  H264  1  0.56437000  0.60283000  0.71289000  1.0
  H  H265  1  0.53034000  0.61675000  0.72782000  1.0
  H  H266  1  0.52985000  0.59755000  0.67382000  1.0
  H  H267  1  0.49895000  0.61513000  0.68900000  1.0
  H  H268  1  0.53914000  0.65125000  0.69271000  1.0
  H  H269  1  0.56681000  0.63319000  0.67432000  1.0
  H  H270  1  0.51246000  0.66211000  0.60873000  1.0
  H  H271  1  0.49457000  0.68457000  0.63104000  1.0
  H  H272  1  0.54192000  0.68433000  0.65577000  1.0
  H  H273  1  0.56289000  0.66450000  0.63402000  1.0
  H  H274  1  0.52403000  0.63066000  0.64050000  1.0
  H  H275  1  0.49867000  0.65010000  0.65902000  1.0
  H  H276  1  0.05184000  0.37108000  0.73337000  1.0
  H  H277  1  0.01193000  0.29714000  0.58704000  1.0
  H  H278  1  0.02152000  0.39661000  0.69237000  1.0
  H  H279  1  0.99306000  0.37667000  0.70595000  1.0
  H  H280  1  0.06026000  0.36055000  0.68765000  1.0
  H  H281  1  0.03336000  0.34091000  0.70441000  1.0
  H  H282  1  0.99219000  0.34590000  0.66987000  1.0
  H  H283  1  0.02125000  0.36346000  0.65261000  1.0
  H  H284  1  0.05814000  0.29158000  0.62144000  1.0
  H  H285  1  0.02669000  0.27542000  0.63676000  1.0
  H  H286  1  0.99134000  0.31313000  0.63410000  1.0
  H  H287  1  0.02207000  0.32939000  0.61737000  1.0
  H  H288  1  0.05908000  0.32651000  0.65377000  1.0
  H  H289  1  0.02964000  0.30918000  0.67069000  1.0
  H  H290  1  0.50427000  0.27665000  0.40873000  1.0
  H  H291  1  0.53387000  0.41134000  0.31807000  1.0
  H  H292  1  0.56453000  0.28879000  0.39609000  1.0
  H  H293  1  0.55110000  0.31656000  0.41129000  1.0
  H  H294  1  0.52601000  0.29389000  0.36372000  1.0
  H  H295  1  0.49953000  0.31266000  0.38226000  1.0
  H  H296  1  0.53321000  0.34858000  0.37969000  1.0
  H  H297  1  0.56668000  0.33144000  0.36768000  1.0
  H  H298  1  0.55440000  0.36529000  0.29470000  1.0
  H  H299  1  0.51231000  0.36561000  0.29809000  1.0
  H  H300  1  0.52439000  0.37944000  0.34503000  1.0
  H  H301  1  0.56465000  0.37006000  0.33837000  1.0
  H  H302  1  0.54178000  0.32674000  0.32717000  1.0
  H  H303  1  0.50344000  0.33765000  0.33808000  1.0
  C  C304  1  0.03278000  0.48429000  0.11275000  1.0
  C  C305  1  0.06188000  0.46854000  0.11696000  1.0
  C  C306  1  0.90543000  0.52716000  0.21456000  1.0
  C  C307  1  0.89935000  0.54609000  0.23453000  1.0
  C  C308  1  0.87030000  0.54804000  0.24655000  1.0
  C  C309  1  0.02791000  0.51990000  0.16371000  1.0
  C  C310  1  0.99584000  0.51521000  0.16019000  1.0
  C  C311  1  0.99271000  0.50490000  0.13710000  1.0
  C  C312  1  0.87626000  0.55624000  0.27003000  1.0
  C  C313  1  0.98558000  0.52718000  0.20209000  1.0
  C  C314  1  0.97476000  0.51725000  0.18019000  1.0
  C  C315  1  0.94242000  0.51304000  0.18301000  1.0
  C  C316  1  0.90863000  0.56020000  0.27079000  1.0
  C  C317  1  0.00138000  0.55270000  0.29425000  1.0
  C  C318  1  0.02486000  0.57030000  0.28304000  1.0
  C  C319  1  0.95285000  0.54209000  0.29839000  1.0
  C  C320  1  0.99551000  0.55228000  0.31926000  1.0
  C  C321  1  0.96356000  0.54689000  0.32199000  1.0
  C  C322  1  0.02780000  0.54996000  0.22408000  1.0
  C  C323  1  0.06022000  0.55265000  0.22847000  1.0
  C  C324  1  0.06308000  0.56568000  0.25017000  1.0
  C  C325  1  0.12239000  0.52454000  0.19186000  1.0
  C  C326  1  0.15166000  0.52357000  0.18126000  1.0
  C  C327  1  0.15416000  0.52513000  0.15338000  1.0
  C  C328  1  0.18304000  0.52370000  0.14109000  1.0
  C  C329  1  0.17782000  0.51135000  0.11933000  1.0
  C  C330  1  0.14546000  0.50733000  0.11868000  1.0
  C  C331  1  0.03944000  0.52722000  0.18678000  1.0
  C  C332  1  0.07159000  0.52698000  0.19339000  1.0
  C  C333  1  0.08239000  0.53947000  0.21391000  1.0
  C  C334  1  0.07103000  0.45126000  0.09967000  1.0
  C  C335  1  0.11550000  0.53731000  0.21387000  1.0
  C  C336  1  0.10391000  0.45139000  0.09910000  1.0
  C  C337  1  0.11269000  0.46742000  0.11766000  1.0
  C  C338  1  0.02440000  0.50226000  0.12874000  1.0
  C  C339  1  0.93547000  0.52253000  0.20655000  1.0
  C  C340  1  0.92511000  0.55186000  0.29043000  1.0
  C  C341  1  0.01700000  0.53504000  0.20478000  1.0
  C  C342  1  0.13502000  0.48457000  0.11314000  1.0
  C  C343  1  0.03143000  0.56852000  0.25864000  1.0
  C  C344  1  0.64539000  0.80224000  0.54927000  1.0
  C  C345  1  0.64891000  0.82665000  0.56239000  1.0
  C  C346  1  0.50502000  0.71019000  0.58824000  1.0
  C  C347  1  0.46878000  0.70716000  0.59172000  1.0
  C  C348  1  0.45392000  0.68463000  0.59676000  1.0
  C  C349  1  0.56463000  0.79510000  0.54292000  1.0
  C  C350  1  0.57286000  0.77074000  0.54711000  1.0
  C  C351  1  0.60603000  0.76938000  0.54661000  1.0
  C  C352  1  0.42353000  0.68513000  0.58760000  1.0
  C  C353  1  0.51717000  0.76078000  0.55126000  1.0
  C  C354  1  0.54880000  0.75381000  0.55337000  1.0
  C  C355  1  0.54903000  0.73162000  0.56619000  1.0
  C  C356  1  0.42041000  0.70805000  0.57765000  1.0
  C  C357  1  0.39913000  0.76146000  0.52825000  1.0
  C  C358  1  0.40057000  0.78784000  0.53774000  1.0
  C  C359  1  0.40396000  0.72252000  0.53437000  1.0
  C  C360  1  0.37131000  0.75026000  0.51991000  1.0
  C  C361  1  0.37396000  0.72547000  0.52449000  1.0
  C  C362  1  0.47757000  0.79499000  0.55717000  1.0
  C  C363  1  0.46990000  0.81967000  0.55436000  1.0
  C  C364  1  0.43707000  0.82099000  0.55008000  1.0
  C  C365  1  0.52747000  0.86754000  0.54417000  1.0
  C  C366  1  0.53801000  0.88859000  0.53344000  1.0
  C  C367  1  0.56861000  0.88872000  0.51848000  1.0
  C  C368  1  0.58227000  0.91027000  0.50981000  1.0
  C  C369  1  0.61485000  0.90751000  0.51126000  1.0
  C  C370  1  0.61945000  0.88370000  0.51917000  1.0
  C  C371  1  0.53369000  0.80379000  0.54872000  1.0
  C  C372  1  0.52604000  0.82887000  0.55157000  1.0
  C  C373  1  0.49464000  0.83693000  0.55235000  1.0
  C  C374  1  0.67855000  0.83583000  0.56885000  1.0
  C  C375  1  0.49501000  0.86209000  0.54796000  1.0
  C  C376  1  0.67753000  0.86088000  0.56457000  1.0
  C  C377  1  0.64626000  0.86565000  0.55795000  1.0
  C  C378  1  0.61598000  0.79385000  0.54269000  1.0
  C  C379  1  0.51639000  0.72597000  0.57013000  1.0
  C  C380  1  0.40667000  0.70984000  0.55536000  1.0
  C  C381  1  0.50877000  0.78611000  0.55215000  1.0
  C  C382  1  0.64000000  0.87957000  0.53793000  1.0
  C  C383  1  0.42715000  0.79618000  0.55003000  1.0
  C  C384  1  0.04114000  0.40794000  0.73750000  1.0
  C  C385  1  0.07014000  0.42084000  0.72716000  1.0
  C  C386  1  0.90321000  0.45158000  0.83266000  1.0
  C  C387  1  0.90180000  0.44573000  0.85985000  1.0
  C  C388  1  0.87298000  0.44137000  0.87131000  1.0
  C  C389  1  0.03026000  0.43420000  0.79384000  1.0
  C  C390  1  0.99846000  0.43108000  0.78734000  1.0
  C  C391  1  0.99831000  0.41689000  0.76609000  1.0
  C  C392  1  0.87450000  0.45269000  0.89407000  1.0
  C  C393  1  0.98293000  0.45649000  0.82176000  1.0
  C  C394  1  0.97452000  0.44386000  0.80061000  1.0
  C  C395  1  0.94137000  0.44413000  0.79953000  1.0
  C  C396  1  0.90542000  0.46121000  0.89590000  1.0
  C  C397  1  0.98047000  0.50852000  0.90337000  1.0
  C  C398  1  0.01203000  0.49546000  0.90682000  1.0
  C  C399  1  0.92989000  0.50428000  0.90150000  1.0
  C  C400  1  0.96781000  0.52286000  0.92200000  1.0
  C  C401  1  0.93530000  0.51908000  0.92177000  1.0
  C  C402  1  0.02384000  0.46345000  0.85391000  1.0
  C  C403  1  0.05527000  0.46847000  0.85948000  1.0
  C  C404  1  0.05584000  0.47765000  0.88324000  1.0
  C  C405  1  0.12162000  0.45860000  0.81894000  1.0
  C  C406  1  0.15148000  0.44878000  0.81584000  1.0
  C  C407  1  0.15664000  0.42641000  0.80002000  1.0
  C  C408  1  0.18705000  0.41846000  0.79413000  1.0
  C  C409  1  0.18549000  0.40847000  0.77083000  1.0
  C  C410  1  0.15346000  0.40911000  0.76482000  1.0
  C  C411  1  0.03904000  0.44937000  0.81342000  1.0
  C  C412  1  0.07043000  0.45705000  0.81825000  1.0
  C  C413  1  0.07854000  0.46672000  0.84094000  1.0
  C  C414  1  0.08234000  0.41548000  0.70409000  1.0
  C  C415  1  0.11130000  0.46914000  0.84139000  1.0
  C  C416  1  0.11492000  0.41830000  0.70539000  1.0
  C  C417  1  0.12065000  0.42687000  0.72886000  1.0
  C  C418  1  0.03084000  0.41374000  0.76033000  1.0
  C  C419  1  0.93178000  0.45588000  0.82162000  1.0
  C  C420  1  0.91074000  0.48447000  0.90369000  1.0
  C  C421  1  0.01463000  0.45679000  0.83007000  1.0
  C  C422  1  0.14421000  0.41638000  0.74220000  1.0
  C  C423  1  0.02330000  0.47920000  0.88990000  1.0
  C  C424  1  0.50564000  0.09205000  0.50924000  1.0
  C  C425  1  0.47339000  0.09335000  0.52177000  1.0
  C  C426  1  0.64759000  0.18401000  0.46786000  1.0
  C  C427  1  0.65310000  0.20112000  0.44641000  1.0
  C  C428  1  0.68365000  0.20736000  0.43938000  1.0
  C  C429  1  0.51859000  0.14822000  0.48285000  1.0
  C  C430  1  0.54995000  0.14161000  0.48738000  1.0
  C  C431  1  0.54968000  0.11756000  0.49584000  1.0
  C  C432  1  0.68240000  0.23138000  0.43111000  1.0
  C  C433  1  0.56647000  0.18233000  0.47576000  1.0
  C  C434  1  0.57400000  0.15940000  0.48517000  1.0
  C  C435  1  0.60687000  0.15828000  0.48747000  1.0
  C  C436  1  0.65044000  0.23763000  0.43172000  1.0
  C  C437  1  0.56811000  0.27442000  0.45026000  1.0
  C  C438  1  0.54003000  0.26699000  0.43398000  1.0
  C  C439  1  0.61870000  0.27117000  0.45449000  1.0
  C  C440  1  0.58004000  0.29810000  0.45119000  1.0
  C  C441  1  0.61296000  0.29611000  0.45188000  1.0
  C  C442  1  0.52673000  0.20841000  0.45373000  1.0
  C  C443  1  0.49520000  0.21610000  0.45176000  1.0
  C  C444  1  0.49573000  0.23851000  0.43943000  1.0
  C  C445  1  0.42776000  0.18290000  0.47662000  1.0
  C  C446  1  0.39877000  0.17272000  0.47178000  1.0
  C  C447  1  0.39663000  0.14624000  0.46362000  1.0
  C  C448  1  0.36755000  0.13584000  0.45767000  1.0
  C  C449  1  0.36792000  0.11222000  0.46711000  1.0
  C  C450  1  0.39854000  0.10904000  0.47611000  1.0
  C  C451  1  0.51023000  0.17215000  0.47605000  1.0
  C  C452  1  0.47888000  0.18123000  0.47635000  1.0
  C  C453  1  0.47110000  0.20306000  0.46455000  1.0
  C  C454  1  0.45937000  0.07319000  0.53295000  1.0
  C  C455  1  0.43802000  0.20507000  0.46543000  1.0
  C  C456  1  0.42690000  0.07550000  0.52988000  1.0
  C  C457  1  0.42266000  0.09783000  0.51830000  1.0
  C  C458  1  0.51707000  0.11180000  0.49723000  1.0
  C  C459  1  0.61766000  0.18073000  0.47731000  1.0
  C  C460  1  0.64152000  0.25960000  0.44130000  1.0
  C  C461  1  0.53512000  0.18814000  0.46835000  1.0
  C  C462  1  0.40321000  0.09889000  0.49851000  1.0
  C  C463  1  0.52853000  0.24361000  0.43606000  1.0
  C  C464  1  0.64886000  0.46769000  0.19261000  1.0
  C  C465  1  0.65452000  0.46082000  0.16575000  1.0
  C  C466  1  0.51333000  0.41163000  0.28372000  1.0
  C  C467  1  0.47831000  0.40484000  0.28558000  1.0
  C  C468  1  0.46537000  0.39613000  0.30739000  1.0
  C  C469  1  0.56770000  0.46380000  0.20072000  1.0
  C  C470  1  0.57705000  0.45810000  0.22455000  1.0
  C  C471  1  0.60998000  0.46111000  0.22565000  1.0
  C  C472  1  0.43401000  0.40360000  0.30830000  1.0
  C  C473  1  0.52228000  0.44997000  0.23427000  1.0
  C  C474  1  0.55404000  0.44943000  0.24123000  1.0
  C  C475  1  0.55550000  0.43637000  0.26341000  1.0
  C  C476  1  0.42877000  0.41548000  0.28626000  1.0
  C  C477  1  0.40805000  0.47377000  0.23924000  1.0
  C  C478  1  0.40879000  0.46880000  0.21177000  1.0
  C  C479  1  0.40997000  0.45946000  0.27600000  1.0
  C  C480  1  0.38089000  0.48200000  0.25125000  1.0
  C  C481  1  0.38102000  0.47151000  0.27445000  1.0
  C  C482  1  0.48215000  0.44534000  0.20024000  1.0
  C  C483  1  0.47385000  0.45126000  0.17627000  1.0
  C  C484  1  0.44166000  0.45749000  0.17636000  1.0
  C  C485  1  0.52809000  0.47049000  0.12955000  1.0
  C  C486  1  0.53494000  0.48774000  0.11238000  1.0
  C  C487  1  0.56204000  0.50568000  0.11550000  1.0
  C  C488  1  0.57155000  0.52089000  0.09641000  1.0
  C  C489  1  0.60437000  0.52229000  0.09763000  1.0
  C  C490  1  0.61252000  0.50959000  0.11879000  1.0
  C  C491  1  0.53744000  0.45703000  0.19162000  1.0
  C  C492  1  0.52948000  0.45661000  0.16636000  1.0
  C  C493  1  0.49785000  0.45560000  0.15893000  1.0
  C  C494  1  0.68444000  0.46115000  0.15491000  1.0
  C  C495  1  0.49651000  0.46389000  0.13490000  1.0
  C  C496  1  0.68067000  0.46949000  0.13112000  1.0
  C  C497  1  0.64824000  0.47201000  0.12807000  1.0
  C  C498  1  0.61852000  0.46813000  0.20155000  1.0
  C  C499  1  0.52333000  0.43030000  0.26843000  1.0
  C  C500  1  0.41240000  0.43691000  0.28621000  1.0
  C  C501  1  0.51337000  0.45059000  0.20911000  1.0
  C  C502  1  0.63667000  0.49310000  0.11828000  1.0
  C  C503  1  0.43254000  0.45490000  0.20120000  1.0
  C  C504  1  0.03199000  0.88763000  0.50287000  1.0
  C  C505  1  0.06197000  0.88518000  0.51827000  1.0
  C  C506  1  0.89928000  0.78753000  0.47908000  1.0
  C  C507  1  0.89659000  0.75993000  0.48315000  1.0
  C  C508  1  0.86753000  0.74819000  0.48652000  1.0
  C  C509  1  0.02394000  0.83277000  0.47283000  1.0
  C  C510  1  0.99219000  0.83988000  0.47265000  1.0
  C  C511  1  0.99103000  0.86406000  0.48075000  1.0
  C  C512  1  0.87011000  0.72482000  0.47714000  1.0
  C  C513  1  0.97698000  0.79832000  0.46309000  1.0
  C  C514  1  0.96830000  0.82229000  0.46849000  1.0
  C  C515  1  0.93542000  0.82240000  0.47228000  1.0
  C  C516  1  0.90123000  0.72301000  0.46955000  1.0
  C  C517  1  0.97510000  0.71408000  0.41987000  1.0
  C  C518  1  0.00939000  0.71504000  0.42857000  1.0
  C  C519  1  0.92466000  0.71467000  0.42667000  1.0
  C  C520  1  0.96219000  0.69267000  0.41031000  1.0
  C  C521  1  0.93014000  0.69274000  0.41490000  1.0
  C  C522  1  0.01758000  0.76460000  0.46694000  1.0
  C  C523  1  0.04955000  0.75799000  0.46595000  1.0
  C  C524  1  0.05096000  0.73572000  0.45323000  1.0
  C  C525  1  0.11509000  0.79910000  0.47933000  1.0
  C  C526  1  0.14403000  0.80908000  0.47371000  1.0
  C  C527  1  0.14669000  0.83568000  0.46543000  1.0
  C  C528  1  0.17602000  0.84668000  0.46173000  1.0
  C  C529  1  0.17376000  0.87042000  0.47073000  1.0
  C  C530  1  0.14210000  0.87314000  0.47710000  1.0
  C  C531  1  0.03262000  0.80756000  0.47338000  1.0
  C  C532  1  0.06368000  0.79892000  0.47907000  1.0
  C  C533  1  0.07294000  0.77510000  0.47329000  1.0
  C  C534  1  0.07336000  0.90482000  0.53194000  1.0
  C  C535  1  0.10623000  0.77467000  0.47365000  1.0
  C  C536  1  0.10622000  0.90422000  0.53036000  1.0
  C  C537  1  0.11294000  0.88282000  0.51760000  1.0
  C  C538  1  0.02311000  0.86999000  0.48620000  1.0
  C  C539  1  0.92640000  0.79760000  0.46919000  1.0
  C  C540  1  0.90673000  0.71400000  0.44701000  1.0
  C  C541  1  0.00847000  0.78972000  0.46779000  1.0
  C  C542  1  0.13438000  0.88317000  0.49910000  1.0
  C  C543  1  0.01882000  0.73036000  0.44739000  1.0
  C  C544  1  0.65151000  0.52971000  0.81886000  1.0
  C  C545  1  0.65599000  0.55254000  0.80350000  1.0
  C  C546  1  0.51195000  0.47999000  0.90693000  1.0
  C  C547  1  0.48070000  0.46666000  0.90325000  1.0
  C  C548  1  0.46814000  0.45174000  0.92147000  1.0
  C  C549  1  0.57070000  0.52104000  0.82058000  1.0
  C  C550  1  0.57863000  0.51125000  0.84327000  1.0
  C  C551  1  0.61148000  0.50893000  0.84405000  1.0
  C  C552  1  0.43548000  0.45486000  0.92071000  1.0
  C  C553  1  0.52345000  0.51373000  0.85539000  1.0
  C  C554  1  0.55497000  0.50899000  0.86142000  1.0
  C  C555  1  0.55518000  0.49919000  0.88491000  1.0
  C  C556  1  0.43000000  0.46993000  0.90063000  1.0
  C  C557  1  0.40030000  0.52901000  0.85976000  1.0
  C  C558  1  0.40278000  0.52435000  0.83237000  1.0
  C  C559  1  0.40361000  0.51253000  0.89541000  1.0
  C  C560  1  0.37100000  0.53251000  0.87089000  1.0
  C  C561  1  0.37238000  0.52052000  0.89330000  1.0
  C  C562  1  0.48313000  0.52052000  0.82269000  1.0
  C  C563  1  0.47491000  0.53295000  0.80135000  1.0
  C  C564  1  0.44174000  0.53231000  0.79975000  1.0
  C  C565  1  0.53145000  0.56211000  0.76070000  1.0
  C  C566  1  0.54250000  0.56494000  0.73727000  1.0
  C  C567  1  0.57259000  0.55201000  0.72901000  1.0
  C  C568  1  0.58490000  0.55581000  0.70576000  1.0
  C  C569  1  0.61770000  0.55539000  0.70807000  1.0
  C  C570  1  0.62326000  0.54912000  0.73236000  1.0
  C  C571  1  0.53926000  0.52859000  0.81535000  1.0
  C  C572  1  0.53045000  0.54360000  0.79549000  1.0
  C  C573  1  0.49879000  0.54589000  0.78835000  1.0
  C  C574  1  0.68614000  0.56120000  0.79823000  1.0
  C  C575  1  0.49872000  0.55882000  0.76634000  1.0
  C  C576  1  0.68474000  0.57129000  0.77494000  1.0
  C  C577  1  0.65296000  0.56990000  0.76824000  1.0
  C  C578  1  0.62194000  0.51959000  0.82172000  1.0
  C  C579  1  0.52262000  0.49685000  0.89070000  1.0
  C  C580  1  0.40981000  0.48926000  0.90284000  1.0
  C  C581  1  0.51464000  0.52068000  0.83153000  1.0
  C  C582  1  0.64511000  0.56170000  0.74559000  1.0
  C  C583  1  0.43190000  0.52052000  0.82173000  1.0
  C  C584  1  0.03722000  0.26446000  0.58531000  1.0
  C  C585  1  0.06662000  0.27335000  0.57196000  1.0
  C  C586  1  0.89910000  0.16741000  0.54644000  1.0
  C  C587  1  0.89766000  0.14015000  0.55205000  1.0
  C  C588  1  0.86880000  0.12870000  0.55621000  1.0
  C  C589  1  0.02629000  0.20613000  0.56412000  1.0
  C  C590  1  0.99451000  0.21286000  0.56681000  1.0
  C  C591  1  0.99438000  0.23491000  0.57976000  1.0
  C  C592  1  0.87023000  0.10611000  0.54457000  1.0
  C  C593  1  0.97894000  0.17809000  0.54187000  1.0
  C  C594  1  0.97058000  0.19943000  0.55419000  1.0
  C  C595  1  0.93738000  0.20064000  0.55373000  1.0
  C  C596  1  0.90114000  0.10433000  0.53603000  1.0
  C  C597  1  0.97590000  0.09791000  0.48819000  1.0
  C  C598  1  0.00762000  0.09405000  0.50091000  1.0
  C  C599  1  0.92536000  0.09978000  0.49274000  1.0
  C  C600  1  0.96302000  0.07974000  0.47338000  1.0
  C  C601  1  0.93053000  0.07994000  0.47732000  1.0
  C  C602  1  0.01972000  0.14574000  0.53494000  1.0
  C  C603  1  0.05115000  0.14018000  0.52978000  1.0
  C  C604  1  0.05154000  0.11674000  0.51978000  1.0
  C  C605  1  0.11756000  0.18088000  0.53935000  1.0
  C  C606  1  0.14736000  0.18424000  0.54922000  1.0
  C  C607  1  0.15210000  0.20007000  0.57175000  1.0
  C  C608  1  0.18235000  0.20587000  0.58013000  1.0
  C  C609  1  0.18077000  0.22942000  0.58959000  1.0
  C  C610  1  0.14884000  0.23569000  0.58830000  1.0
  C  C611  1  0.03506000  0.18623000  0.54919000  1.0
  C  C612  1  0.06634000  0.18137000  0.54127000  1.0
  C  C613  1  0.07446000  0.15868000  0.53162000  1.0
  C  C614  1  0.07841000  0.29689000  0.57530000  1.0
  C  C615  1  0.10727000  0.15830000  0.52904000  1.0
  C  C616  1  0.11123000  0.29516000  0.57411000  1.0
  C  C617  1  0.11723000  0.27093000  0.56785000  1.0
  C  C618  1  0.02697000  0.24092000  0.58251000  1.0
  C  C619  1  0.92773000  0.17846000  0.54216000  1.0
  C  C620  1  0.90636000  0.09707000  0.51258000  1.0
  C  C621  1  0.01058000  0.16959000  0.54181000  1.0
  C  C622  1  0.14011000  0.25815000  0.57996000  1.0
  C  C623  1  0.01898000  0.11027000  0.51791000  1.0
  C  C624  1  0.20869000  0.52189000  0.19769000  1.0
  C  C625  1  0.23428000  0.50139000  0.19328000  1.0
  C  C626  1  0.26949000  0.50997000  0.19597000  1.0
  C  C627  1  0.35323000  0.47407000  0.19617000  1.0
  C  C628  1  0.32898000  0.49610000  0.19498000  1.0
  C  C629  1  0.29347000  0.48783000  0.19471000  1.0
  C  C630  1  0.69603000  0.79618000  0.52680000  1.0
  C  C631  1  0.73193000  0.79030000  0.53297000  1.0
  C  C632  1  0.75542000  0.79783000  0.51191000  1.0
  C  C633  1  0.85095000  0.80229000  0.50335000  1.0
  C  C634  1  0.81421000  0.80153000  0.49699000  1.0
  C  C635  1  0.79167000  0.79636000  0.51930000  1.0
  C  C636  1  0.35279000  0.50342000  0.82099000  1.0
  C  C637  1  0.31703000  0.50941000  0.81510000  1.0
  C  C638  1  0.29390000  0.48817000  0.82264000  1.0
  C  C639  1  0.20008000  0.47495000  0.81585000  1.0
  C  C640  1  0.23523000  0.47287000  0.82543000  1.0
  C  C641  1  0.25834000  0.49267000  0.81471000  1.0
  C  C642  1  0.84866000  0.17718000  0.52488000  1.0
  C  C643  1  0.81259000  0.18145000  0.53088000  1.0
  C  C644  1  0.78981000  0.17585000  0.50862000  1.0
  C  C645  1  0.69559000  0.18206000  0.49515000  1.0
  C  C646  1  0.73105000  0.17327000  0.49260000  1.0
  C  C647  1  0.75389000  0.18231000  0.51363000  1.0
  C  C648  1  0.70066000  0.50387000  0.81826000  1.0
  C  C649  1  0.73557000  0.50507000  0.82848000  1.0
  C  C650  1  0.75900000  0.48594000  0.81669000  1.0
  C  C651  1  0.85313000  0.47351000  0.82320000  1.0
  C  C652  1  0.81743000  0.46852000  0.81658000  1.0
  C  C653  1  0.79427000  0.48924000  0.82576000  1.0
  C  C654  1  0.19632000  0.18494000  0.52344000  1.0
  C  C655  1  0.23141000  0.17508000  0.52506000  1.0
  C  C656  1  0.25466000  0.18671000  0.50585000  1.0
  C  C657  1  0.34896000  0.18103000  0.49416000  1.0
  C  C658  1  0.31307000  0.18698000  0.48882000  1.0
  C  C659  1  0.29020000  0.17843000  0.50984000  1.0
  C  C660  1  0.85043000  0.51523000  0.19891000  1.0
  C  C661  1  0.82382000  0.49814000  0.20952000  1.0
  C  C662  1  0.78947000  0.50417000  0.20041000  1.0
  C  C663  1  0.70457000  0.47248000  0.21086000  1.0
  C  C664  1  0.72999000  0.49161000  0.20241000  1.0
  C  C665  1  0.76486000  0.48458000  0.20939000  1.0
  C  C666  1  0.35099000  0.80633000  0.51692000  1.0
  C  C667  1  0.31467000  0.80210000  0.52305000  1.0
  C  C668  1  0.29132000  0.80186000  0.50044000  1.0
  C  C669  1  0.19548000  0.79945000  0.49430000  1.0
  C  C670  1  0.23139000  0.79657000  0.48657000  1.0
  C  C671  1  0.25542000  0.80018000  0.50847000  1.0
  C  C672  1  0.02635000  0.49379000  0.06935000  1.0
  C  C673  1  0.01502000  0.48183000  0.04498000  1.0
  C  C674  1  0.02798000  0.49550000  0.02205000  1.0
  C  C675  1  0.01929000  0.48537000  0.95019000  1.0
  C  C676  1  0.02991000  0.49723000  0.97481000  1.0
  C  C677  1  0.01720000  0.48318000  0.99761000  1.0
  C  C678  1  0.52825000  0.04966000  0.51861000  1.0
  C  C679  1  0.51497000  0.02408000  0.51062000  1.0
  C  C680  1  0.52677000  0.00247000  0.52686000  1.0
  C  C681  1  0.51270000  0.93020000  0.52550000  1.0
  C  C682  1  0.52473000  0.95586000  0.53404000  1.0
  C  C683  1  0.51394000  0.97735000  0.51725000  1.0
  C  C684  1  0.52926000  0.47811000  0.06894000  1.0
  C  C685  1  0.51530000  0.48894000  0.04478000  1.0
  C  C686  1  0.52998000  0.47662000  0.02171000  1.0
  C  C687  1  0.51918000  0.48780000  0.95043000  1.0
  C  C688  1  0.53121000  0.47564000  0.97453000  1.0
  C  C689  1  0.51787000  0.48884000  0.99761000  1.0
  C  C690  1  0.01628000  0.05022000  0.50870000  1.0
  C  C691  1  0.02515000  0.02640000  0.49453000  1.0
  C  C692  1  0.01479000  0.00265000  0.50823000  1.0
  C  C693  1  0.02350000  0.93138000  0.49344000  1.0
  C  C694  1  0.01298000  0.95519000  0.50704000  1.0
  C  C695  1  0.02388000  0.97897000  0.49368000  1.0
  C  C696  1  0.02523000  0.60726000  0.30898000  1.0
  C  C697  1  0.04568000  0.62331000  0.32689000  1.0
  C  C698  1  0.02485000  0.63919000  0.34460000  1.0
  C  C699  1  0.03672000  0.69511000  0.39204000  1.0
  C  C700  1  0.02362000  0.67064000  0.38013000  1.0
  C  C701  1  0.04397000  0.65933000  0.35901000  1.0
  C  C702  1  0.53767000  0.60336000  0.71319000  1.0
  C  C703  1  0.52535000  0.61242000  0.68766000  1.0
  C  C704  1  0.54103000  0.63671000  0.67822000  1.0
  C  C705  1  0.51643000  0.67835000  0.62108000  1.0
  C  C706  1  0.53910000  0.66929000  0.64190000  1.0
  C  C707  1  0.52413000  0.64597000  0.65432000  1.0
  C  C708  1  0.01921000  0.37979000  0.70398000  1.0
  C  C709  1  0.03451000  0.35668000  0.69120000  1.0
  C  C710  1  0.01825000  0.34856000  0.66666667  1.0
  C  C711  1  0.03161000  0.28991000  0.62266000  1.0
  C  C712  1  0.01767000  0.31509000  0.63177000  1.0
  C  C713  1  0.03288000  0.32393000  0.65656000  1.0
  C  C714  1  0.54293000  0.29968000  0.40165000  1.0
  C  C715  1  0.52510000  0.30887000  0.37782000  1.0
  C  C716  1  0.54008000  0.33307000  0.36717000  1.0
  C  C717  1  0.53470000  0.37392000  0.30547000  1.0
  C  C718  1  0.53914000  0.36685000  0.33333333  1.0
  C  C719  1  0.52984000  0.33977000  0.34017000  1.0
  N  N720  1  0.08739000  0.47533000  0.13105000  1.0
  N  N721  1  0.92273000  0.55712000  0.24845000  1.0
  N  N722  1  0.97670000  0.54212000  0.28166000  1.0
  N  N723  1  0.09535000  0.51644000  0.18054000  1.0
  N  N724  1  0.13004000  0.51877000  0.13748000  1.0
  N  N725  1  0.04575000  0.51351000  0.14407000  1.0
  N  N726  1  0.96249000  0.52906000  0.21904000  1.0
  N  N727  1  0.00953000  0.56062000  0.24163000  1.0
  N  N728  1  0.62752000  0.84552000  0.56036000  1.0
  N  N729  1  0.44610000  0.72267000  0.58200000  1.0
  N  N730  1  0.42111000  0.74353000  0.53381000  1.0
  N  N731  1  0.54645000  0.84774000  0.54915000  1.0
  N  N732  1  0.59169000  0.87088000  0.52007000  1.0
  N  N733  1  0.59051000  0.80907000  0.53824000  1.0
  N  N734  1  0.49758000  0.74206000  0.55688000  1.0
  N  N735  1  0.45112000  0.78117000  0.55845000  1.0
  N  N736  1  0.09334000  0.43175000  0.74131000  1.0
  N  N737  1  0.92367000  0.45370000  0.87671000  1.0
  N  N738  1  0.95671000  0.50072000  0.88798000  1.0
  N  N739  1  0.09616000  0.45348000  0.80375000  1.0
  N  N740  1  0.13495000  0.41701000  0.78371000  1.0
  N  N741  1  0.05037000  0.42247000  0.77850000  1.0
  N  N742  1  0.95734000  0.46526000  0.83404000  1.0
  N  N743  1  0.00423000  0.46799000  0.87293000  1.0
  N  N744  1  0.45040000  0.11061000  0.51635000  1.0
  N  N745  1  0.63171000  0.21817000  0.43772000  1.0
  N  N746  1  0.59139000  0.25838000  0.45772000  1.0
  N  N747  1  0.45302000  0.16933000  0.48514000  1.0
  N  N748  1  0.41768000  0.12835000  0.47076000  1.0
  N  N749  1  0.49826000  0.12972000  0.48722000  1.0
  N  N750  1  0.59255000  0.19635000  0.47261000  1.0
  N  N751  1  0.54723000  0.22396000  0.44268000  1.0
  N  N752  1  0.63187000  0.46315000  0.14765000  1.0
  N  N753  1  0.45441000  0.41414000  0.27104000  1.0
  N  N754  1  0.42827000  0.46332000  0.25594000  1.0
  N  N755  1  0.54876000  0.46328000  0.14769000  1.0
  N  N756  1  0.58654000  0.50255000  0.13176000  1.0
  N  N757  1  0.59223000  0.47207000  0.18723000  1.0
  N  N758  1  0.50347000  0.44263000  0.25266000  1.0
  N  N759  1  0.45595000  0.44300000  0.21440000  1.0
  N  N760  1  0.08636000  0.86930000  0.51336000  1.0
  N  N761  1  0.91882000  0.74293000  0.47581000  1.0
  N  N762  1  0.95099000  0.72915000  0.42782000  1.0
  N  N763  1  0.08893000  0.81294000  0.48524000  1.0
  N  N764  1  0.12448000  0.85339000  0.47030000  1.0
  N  N765  1  0.04324000  0.85185000  0.47819000  1.0
  N  N766  1  0.95111000  0.78411000  0.45969000  1.0
  N  N767  1  0.99867000  0.74601000  0.45959000  1.0
  N  N768  1  0.63436000  0.56166000  0.78688000  1.0
  N  N769  1  0.45702000  0.47431000  0.88767000  1.0
  N  N770  1  0.42205000  0.52088000  0.87673000  1.0
  N  N771  1  0.55056000  0.55498000  0.77992000  1.0
  N  N772  1  0.59601000  0.54352000  0.74447000  1.0
  N  N773  1  0.59662000  0.52458000  0.80636000  1.0
  N  N774  1  0.50343000  0.50829000  0.87386000  1.0
  N  N775  1  0.45749000  0.51131000  0.83445000  1.0
  N  N776  1  0.09006000  0.25833000  0.56296000  1.0
  N  N777  1  0.91948000  0.12333000  0.54390000  1.0
  N  N778  1  0.95228000  0.11310000  0.49656000  1.0
  N  N779  1  0.09202000  0.19598000  0.54437000  1.0
  N  N780  1  0.13042000  0.21665000  0.58066000  1.0
  N  N781  1  0.04641000  0.22203000  0.57516000  1.0
  N  N782  1  0.95334000  0.16597000  0.53294000  1.0
  N  N783  1  1.00000000  0.12692000  0.52974000  1.0
  N  N784  1  0.17669000  0.51059000  0.19525000  1.0
  N  N785  1  0.38699000  0.48284000  0.19594000  1.0
  N  N786  1  0.67351000  0.78648000  0.54589000  1.0
  N  N787  1  0.87083000  0.80333000  0.48049000  1.0
  N  N788  1  0.37339000  0.52556000  0.81754000  1.0
  N  N789  1  0.17919000  0.45776000  0.82979000  1.0
  N  N790  1  0.86922000  0.18166000  0.54703000  1.0
  N  N791  1  0.67505000  0.16944000  0.47652000  1.0
  N  N792  1  0.67945000  0.52062000  0.83262000  1.0
  N  N793  1  0.87337000  0.45129000  0.81837000  1.0
  N  N794  1  0.17532000  0.17057000  0.54021000  1.0
  N  N795  1  0.36933000  0.18745000  0.47257000  1.0
  N  N796  1  0.88209000  0.50795000  0.20924000  1.0
  N  N797  1  0.67238000  0.48281000  0.20575000  1.0
  N  N798  1  0.37157000  0.80302000  0.53936000  1.0
  N  N799  1  0.17267000  0.79349000  0.47373000  1.0
  N  N800  1  0.01376000  0.47980000  0.09066000  1.0
  N  N801  1  0.03016000  0.50072000  0.92923000  1.0
  N  N802  1  0.51850000  0.06871000  0.50044000  1.0
  N  N803  1  0.52536000  0.91181000  0.54310000  1.0
  N  N804  1  0.51425000  0.48969000  0.09088000  1.0
  N  N805  1  0.53158000  0.47462000  0.92842000  1.0
  N  N806  1  0.02597000  0.07213000  0.49421000  1.0
  N  N807  1  0.01219000  0.90944000  0.50717000  1.0
  N  N808  1  0.04409000  0.58611000  0.29921000  1.0
  N  N809  1  0.03214000  0.69663000  0.41938000  1.0
  N  N810  1  0.52419000  0.57860000  0.71864000  1.0
  N  N811  1  0.52848000  0.69894000  0.60569000  1.0
  N  N812  1  0.03286000  0.38317000  0.72917000  1.0
  N  N813  1  0.01724000  0.28213000  0.59860000  1.0
  N  N814  1  0.52237000  0.28536000  0.41900000  1.0
  N  N815  1  0.53609000  0.40130000  0.30158000  1.0
