# generated using pymatgen
data_Co3C18S12O13
_symmetry_space_group_name_H-M   'P 1'
_cell_length_a   27.48260000
_cell_length_b   27.51300000
_cell_length_c   52.22000000
_cell_angle_alpha   89.92600000
_cell_angle_beta   90.35600000
_cell_angle_gamma   89.80100000
_symmetry_Int_Tables_number   1
_chemical_formula_structural   Co3C18S12O13
_chemical_formula_sum   'Co48 C288 S192 O208'
_cell_volume   39484.01019557
_cell_formula_units_Z   16
loop_
 _symmetry_equiv_pos_site_id
 _symmetry_equiv_pos_as_xyz
  1  'x, y, z'
loop_
 _atom_site_type_symbol
 _atom_site_label
 _atom_site_symmetry_multiplicity
 _atom_site_fract_x
 _atom_site_fract_y
 _atom_site_fract_z
 _atom_site_occupancy
  Co  Co0  1  0.05998000  0.54990000  0.30021000  1.0
  Co  Co1  1  0.13040000  0.57365000  0.26433000  1.0
  Co  Co2  1  0.10234000  0.46224000  0.26601000  1.0
  Co  Co3  1  0.21709000  0.40979000  0.51164000  1.0
  Co  Co4  1  0.21064000  0.32776000  0.54680000  1.0
  Co  Co5  1  0.13027000  0.33537000  0.50274000  1.0
  Co  Co6  1  0.33923000  0.42717000  0.76992000  1.0
  Co  Co7  1  0.41901000  0.46335000  0.80137000  1.0
  Co  Co8  1  0.44509000  0.38855000  0.75664000  1.0
  Co  Co9  1  0.29320000  0.59464000  0.02268000  1.0
  Co  Co10  1  0.26545000  0.66635000  0.05796000  1.0
  Co  Co11  1  0.31673000  0.70332000  0.00719000  1.0
  Co  Co12  1  0.80469000  0.43127000  0.71173000  1.0
  Co  Co13  1  0.90261000  0.43645000  0.69254000  1.0
  Co  Co14  1  0.87056000  0.51488000  0.73450000  1.0
  Co  Co15  1  0.76773000  0.65205000  0.46310000  1.0
  Co  Co16  1  0.80696000  0.59128000  0.50246000  1.0
  Co  Co17  1  0.83603000  0.70235000  0.50443000  1.0
  Co  Co18  1  0.56138000  0.53809000  0.20448000  1.0
  Co  Co19  1  0.63821000  0.53618000  0.24433000  1.0
  Co  Co20  1  0.55280000  0.61307000  0.25184000  1.0
  Co  Co21  1  0.68736000  0.35422000  0.94245000  1.0
  Co  Co22  1  0.70186000  0.42163000  0.98514000  1.0
  Co  Co23  1  0.60719000  0.35605000  0.98636000  1.0
  Co  Co24  1  0.58371000  0.05006000  0.79233000  1.0
  Co  Co25  1  0.62534000  0.07723000  0.74523000  1.0
  Co  Co26  1  0.62556000  0.96471000  0.75622000  1.0
  Co  Co27  1  0.70139000  0.89430000  0.99529000  1.0
  Co  Co28  1  0.71838000  0.82363000  0.03446000  1.0
  Co  Co29  1  0.65947000  0.78771000  0.98548000  1.0
  Co  Co30  1  0.85353000  0.96047000  0.25457000  1.0
  Co  Co31  1  0.93753000  0.97075000  0.28915000  1.0
  Co  Co32  1  0.94058000  0.88581000  0.24636000  1.0
  Co  Co33  1  0.77128000  0.06490000  0.49917000  1.0
  Co  Co34  1  0.78417000  0.12234000  0.54540000  1.0
  Co  Co35  1  0.86195000  0.13555000  0.50083000  1.0
  Co  Co36  1  0.35023000  0.90966000  0.19433000  1.0
  Co  Co37  1  0.43705000  0.94582000  0.17499000  1.0
  Co  Co38  1  0.38528000  0.00933000  0.21884000  1.0
  Co  Co39  1  0.26889000  0.15033000  0.94136000  1.0
  Co  Co40  1  0.27260000  0.07323000  0.98026000  1.0
  Co  Co41  1  0.36098000  0.14814000  0.97822000  1.0
  Co  Co42  1  0.08617000  0.02333000  0.68485000  1.0
  Co  Co43  1  0.16516000  0.02416000  0.72342000  1.0
  Co  Co44  1  0.07726000  0.09786000  0.73200000  1.0
  Co  Co45  1  0.21007000  0.81069000  0.42478000  1.0
  Co  Co46  1  0.18447000  0.88742000  0.45872000  1.0
  Co  Co47  1  0.15232000  0.78122000  0.47503000  1.0
  C  C48  1  0.05192000  0.61630000  0.33841000  1.0
  C  C49  1  0.10828000  0.46763000  0.32206000  1.0
  C  C50  1  0.00144000  0.47135000  0.28081000  1.0
  C  C51  1  0.12447000  0.51316000  0.22002000  1.0
  C  C52  1  0.14610000  0.65397000  0.23641000  1.0
  C  C53  1  0.20022000  0.50172000  0.27372000  1.0
  C  C54  1  0.29047000  0.46565000  0.48973000  1.0
  C  C55  1  0.12003000  0.44095000  0.50719000  1.0
  C  C56  1  0.18378000  0.37592000  0.46188000  1.0
  C  C57  1  0.19262000  0.25119000  0.51254000  1.0
  C  C58  1  0.28825000  0.31559000  0.57914000  1.0
  C  C59  1  0.10874000  0.30663000  0.55352000  1.0
  C  C60  1  0.24530000  0.46328000  0.77502000  1.0
  C  C61  1  0.36382000  0.32868000  0.77344000  1.0
  C  C62  1  0.37140000  0.39998000  0.71934000  1.0
  C  C63  1  0.50430000  0.47027000  0.76938000  1.0
  C  C64  1  0.40549000  0.54150000  0.83343000  1.0
  C  C65  1  0.46267000  0.37137000  0.81066000  1.0
  C  C66  1  0.25787000  0.50398000  0.01553000  1.0
  C  C67  1  0.38929000  0.62939000  0.01910000  1.0
  C  C68  1  0.30457000  0.62826000  0.97069000  1.0
  C  C69  1  0.23656000  0.75154000  0.02973000  1.0
  C  C70  1  0.19606000  0.65610000  0.09498000  1.0
  C  C71  1  0.35332000  0.71886000  0.05803000  1.0
  C  C72  1  0.73288000  0.38714000  0.68437000  1.0
  C  C73  1  0.76725000  0.52242000  0.72208000  1.0
  C  C74  1  0.82540000  0.44451000  0.76610000  1.0
  C  C75  1  0.96467000  0.46627000  0.73234000  1.0
  C  C76  1  0.92763000  0.36804000  0.65671000  1.0
  C  C77  1  0.90307000  0.54072000  0.68444000  1.0
  C  C78  1  0.68772000  0.64618000  0.42983000  1.0
  C  C79  1  0.85441000  0.69990000  0.45020000  1.0
  C  C80  1  0.74939000  0.74527000  0.48525000  1.0
  C  C81  1  0.83503000  0.64221000  0.54817000  1.0
  C  C82  1  0.77914000  0.50274000  0.52187000  1.0
  C  C83  1  0.90205000  0.62269000  0.49275000  1.0
  C  C84  1  0.55594000  0.46304000  0.16893000  1.0
  C  C85  1  0.54365000  0.64164000  0.19867000  1.0
  C  C86  1  0.47403000  0.55023000  0.23352000  1.0
  C  C87  1  0.59375000  0.56039000  0.29288000  1.0
  C  C88  1  0.72544000  0.48397000  0.23788000  1.0
  C  C89  1  0.65567000  0.63607000  0.25039000  1.0
  C  C90  1  0.76077000  0.35343000  0.90764000  1.0
  C  C91  1  0.58448000  0.34266000  0.93380000  1.0
  C  C92  1  0.66270000  0.27045000  0.97041000  1.0
  C  C93  1  0.65804000  0.38277000  0.03110000  1.0
  C  C94  1  0.78734000  0.47406000  0.98674000  1.0
  C  C95  1  0.60855000  0.46237000  0.98892000  1.0
  C  C96  1  0.57614000  0.11660000  0.83054000  1.0
  C  C97  1  0.63494000  0.96832000  0.81236000  1.0
  C  C98  1  0.52564000  0.96988000  0.77308000  1.0
  C  C99  1  0.60113000  0.01207000  0.70781000  1.0
  C  C100  1  0.59732000  0.16232000  0.72331000  1.0
  C  C101  1  0.71103000  0.01474000  0.74172000  1.0
  C  C102  1  0.68976000  0.98953000  0.00495000  1.0
  C  C103  1  0.60146000  0.87302000  0.98069000  1.0
  C  C104  1  0.70637000  0.84997000  0.94679000  1.0
  C  C105  1  0.74024000  0.73712000  0.00640000  1.0
  C  C106  1  0.79214000  0.82372000  0.07041000  1.0
  C  C107  1  0.62779000  0.77750000  0.03781000  1.0
  C  C108  1  0.75954000  0.99604000  0.26491000  1.0
  C  C109  1  0.84047000  0.85929000  0.25705000  1.0
  C  C110  1  0.88612000  0.92492000  0.20551000  1.0
  C  C111  1  0.02040000  0.95310000  0.25664000  1.0
  C  C112  1  0.93866000  0.05081000  0.32124000  1.0
  C  C113  1  0.95919000  0.86977000  0.30062000  1.0
  C  C114  1  0.68914000  0.00910000  0.49677000  1.0
  C  C115  1  0.86662000  0.03049000  0.49258000  1.0
  C  C116  1  0.81172000  0.11457000  0.45531000  1.0
  C  C117  1  0.80385000  0.21393000  0.52382000  1.0
  C  C118  1  0.70760000  0.12576000  0.57941000  1.0
  C  C119  1  0.88659000  0.13924000  0.55349000  1.0
  C  C120  1  0.32267000  0.82531000  0.17137000  1.0
  C  C121  1  0.28636000  0.98865000  0.20165000  1.0
  C  C122  1  0.35254000  0.92857000  0.24910000  1.0
  C  C123  1  0.48914000  0.00487000  0.21090000  1.0
  C  C124  1  0.46782000  0.89134000  0.13468000  1.0
  C  C125  1  0.39595000  0.03942000  0.16507000  1.0
  C  C126  1  0.18650000  0.15274000  0.91131000  1.0
  C  C127  1  0.36620000  0.17495000  0.92639000  1.0
  C  C128  1  0.29300000  0.22934000  0.97254000  1.0
  C  C129  1  0.32021000  0.11425000  0.02509000  1.0
  C  C130  1  0.20378000  0.02067000  0.00821000  1.0
  C  C131  1  0.37076000  0.04299000  0.97507000  1.0
  C  C132  1  0.08611000  0.94816000  0.65047000  1.0
  C  C133  1  0.06509000  0.12672000  0.67933000  1.0
  C  C134  1  0.99774000  0.03638000  0.71254000  1.0
  C  C135  1  0.12152000  0.04834000  0.77244000  1.0
  C  C136  1  0.23911000  0.96911000  0.74902000  1.0
  C  C137  1  0.18024000  0.12309000  0.73074000  1.0
  C  C138  1  0.27612000  0.83109000  0.38862000  1.0
  C  C139  1  0.11992000  0.76205000  0.42361000  1.0
  C  C140  1  0.23294000  0.72775000  0.45618000  1.0
  C  C141  1  0.16773000  0.85711000  0.51075000  1.0
  C  C142  1  0.22394000  0.97559000  0.46930000  1.0
  C  C143  1  0.08582000  0.85967000  0.46057000  1.0
  C  C144  1  0.25308000  0.49569000  0.27199000  1.0
  C  C145  1  0.33929000  0.49316000  0.24869000  1.0
  C  C146  1  0.34372000  0.52717000  0.26779000  1.0
  C  C147  1  0.42511000  0.53496000  0.24127000  1.0
  C  C148  1  0.26472000  0.68584000  0.46016000  1.0
  C  C149  1  0.30391000  0.60916000  0.48288000  1.0
  C  C150  1  0.30119000  0.59681000  0.45732000  1.0
  C  C151  1  0.30947000  0.51292000  0.48243000  1.0
  C  C152  1  0.19266000  0.46202000  0.77054000  1.0
  C  C153  1  0.10492000  0.43868000  0.75361000  1.0
  C  C154  1  0.09985000  0.48469000  0.76352000  1.0
  C  C155  1  0.01399000  0.46382000  0.74310000  1.0
  C  C156  1  0.28399000  0.27842000  0.98158000  1.0
  C  C157  1  0.24733000  0.36360000  0.99351000  1.0
  C  C158  1  0.29491000  0.36482000  0.00182000  1.0
  C  C159  1  0.26105000  0.45210000  0.01087000  1.0
  C  C160  1  0.54755000  0.49799000  0.76178000  1.0
  C  C161  1  0.63782000  0.53244000  0.75827000  1.0
  C  C162  1  0.62237000  0.52634000  0.73338000  1.0
  C  C163  1  0.71830000  0.53817000  0.72963000  1.0
  C  C164  1  0.79810000  0.26653000  0.52482000  1.0
  C  C165  1  0.76916000  0.35680000  0.53212000  1.0
  C  C166  1  0.81413000  0.36023000  0.52086000  1.0
  C  C167  1  0.78410000  0.45044000  0.52523000  1.0
  C  C168  1  0.77345000  0.46871000  0.24730000  1.0
  C  C169  1  0.86685000  0.44531000  0.25143000  1.0
  C  C170  1  0.85449000  0.46403000  0.27494000  1.0
  C  C171  1  0.95074000  0.45722000  0.27628000  1.0
  C  C172  1  0.81294000  0.51899000  0.99224000  1.0
  C  C173  1  0.80886000  0.60746000  0.01285000  1.0
  C  C174  1  0.81349000  0.61509000  0.98682000  1.0
  C  C175  1  0.77238000  0.69512000  0.00469000  1.0
  C  C176  1  0.76323000  0.01539000  0.73546000  1.0
  C  C177  1  0.85663000  0.99609000  0.72614000  1.0
  C  C178  1  0.85094000  0.04493000  0.72140000  1.0
  C  C179  1  0.94501000  0.02838000  0.71426000  1.0
  C  C180  1  0.68869000  0.04134000  0.99963000  1.0
  C  C181  1  0.66257000  0.13291000  0.99735000  1.0
  C  C182  1  0.69810000  0.12808000  0.97908000  1.0
  C  C183  1  0.66957000  0.21924000  0.97634000  1.0
  C  C184  1  0.53770000  0.01654000  0.22067000  1.0
  C  C185  1  0.63325000  0.01867000  0.22610000  1.0
  C  C186  1  0.61569000  0.02167000  0.25066000  1.0
  C  C187  1  0.71079000  0.00939000  0.25591000  1.0
  C  C188  1  0.71615000  0.78647000  0.48570000  1.0
  C  C189  1  0.67193000  0.86670000  0.50086000  1.0
  C  C190  1  0.67660000  0.87159000  0.47467000  1.0
  C  C191  1  0.66721000  0.96183000  0.49235000  1.0
  C  C192  1  0.06719000  0.96775000  0.24564000  1.0
  C  C193  1  0.14282000  0.97217000  0.21445000  1.0
  C  C194  1  0.15305000  0.00495000  0.23356000  1.0
  C  C195  1  0.23439000  0.99715000  0.20609000  1.0
  C  C196  1  0.18057000  0.97503000  0.01501000  1.0
  C  C197  1  0.17318000  0.87917000  0.01090000  1.0
  C  C198  1  0.18154000  0.88740000  0.03661000  1.0
  C  C199  1  0.20666000  0.79541000  0.02879000  1.0
  C  C200  1  0.47490000  0.95443000  0.76965000  1.0
  C  C201  1  0.38643000  0.94842000  0.74885000  1.0
  C  C202  1  0.37859000  0.95075000  0.77479000  1.0
  C  C203  1  0.29060000  0.95739000  0.75363000  1.0
  C  C204  1  0.20198000  0.20202000  0.50352000  1.0
  C  C205  1  0.23645000  0.11462000  0.49392000  1.0
  C  C206  1  0.19263000  0.11710000  0.48110000  1.0
  C  C207  1  0.22288000  0.02760000  0.47418000  1.0
  C  C208  1  0.17710000  0.67928000  0.21854000  1.0
  C  C209  1  0.21292000  0.73607000  0.18305000  1.0
  C  C210  1  0.25142000  0.70730000  0.19092000  1.0
  C  C211  1  0.29205000  0.78302000  0.16858000  1.0
  C  C212  1  0.08785000  0.48210000  0.50191000  1.0
  C  C213  1  0.01788000  0.53640000  0.48228000  1.0
  C  C214  1  0.03497000  0.56260000  0.50287000  1.0
  C  C215  1  0.95163000  0.60489000  0.48928000  1.0
  C  C216  1  0.33903000  0.28185000  0.77235000  1.0
  C  C217  1  0.26308000  0.22420000  0.76638000  1.0
  C  C218  1  0.29756000  0.20570000  0.75008000  1.0
  C  C219  1  0.21682000  0.15791000  0.73930000  1.0
  C  C220  1  0.58184000  0.50474000  0.99781000  1.0
  C  C221  1  0.52321000  0.58087000  0.00004000  1.0
  C  C222  1  0.51539000  0.55531000  0.02236000  1.0
  C  C223  1  0.44016000  0.61450000  0.01859000  1.0
  C  C224  1  0.69077000  0.35613000  0.68105000  1.0
  C  C225  1  0.62146000  0.29731000  0.69722000  1.0
  C  C226  1  0.64681000  0.27096000  0.67911000  1.0
  C  C227  1  0.60261000  0.20552000  0.70764000  1.0
  C  C228  1  0.80748000  0.81801000  0.25858000  1.0
  C  C229  1  0.73144000  0.76054000  0.26218000  1.0
  C  C230  1  0.76746000  0.73198000  0.25184000  1.0
  C  C231  1  0.69034000  0.67578000  0.25297000  1.0
  C  C232  1  0.55543000  0.89607000  0.97377000  1.0
  C  C233  1  0.46489000  0.92883000  0.97350000  1.0
  C  C234  1  0.49242000  0.96509000  0.96269000  1.0
  C  C235  1  0.40715000  0.00561000  0.97030000  1.0
  C  C236  1  0.03622000  0.87876000  0.46023000  1.0
  C  C237  1  0.95224000  0.91318000  0.47734000  1.0
  C  C238  1  0.96670000  0.94498000  0.45848000  1.0
  C  C239  1  0.89682000  0.99111000  0.48282000  1.0
  C  C240  1  0.12943000  0.44590000  0.34528000  1.0
  C  C241  1  0.17015000  0.43591000  0.39110000  1.0
  C  C242  1  0.15055000  0.39109000  0.38581000  1.0
  C  C243  1  0.18120000  0.38605000  0.43427000  1.0
  C  C244  1  0.35740000  0.38437000  0.69349000  1.0
  C  C245  1  0.31098000  0.34338000  0.65454000  1.0
  C  C246  1  0.35654000  0.35378000  0.64539000  1.0
  C  C247  1  0.30729000  0.31951000  0.60536000  1.0
  C  C248  1  0.39378000  0.56129000  0.85885000  1.0
  C  C249  1  0.35085000  0.61071000  0.89653000  1.0
  C  C250  1  0.36402000  0.56677000  0.90703000  1.0
  C  C251  1  0.31910000  0.61400000  0.94462000  1.0
  C  C252  1  0.18185000  0.63079000  0.11861000  1.0
  C  C253  1  0.18124000  0.56576000  0.15627000  1.0
  C  C254  1  0.13312000  0.57484000  0.15128000  1.0
  C  C255  1  0.13303000  0.51567000  0.19239000  1.0
  C  C256  1  0.85598000  0.63800000  0.57396000  1.0
  C  C257  1  0.86811000  0.62869000  0.62430000  1.0
  C  C258  1  0.90390000  0.60034000  0.61356000  1.0
  C  C259  1  0.90384000  0.57455000  0.66265000  1.0
  C  C260  1  0.60185000  0.56354000  0.32061000  1.0
  C  C261  1  0.60928000  0.60245000  0.36714000  1.0
  C  C262  1  0.65276000  0.57896000  0.36309000  1.0
  C  C263  1  0.66610000  0.62713000  0.40622000  1.0
  C  C264  1  0.64486000  0.39295000  0.05785000  1.0
  C  C265  1  0.61346000  0.44289000  0.09812000  1.0
  C  C266  1  0.59964000  0.39585000  0.10289000  1.0
  C  C267  1  0.56849000  0.44722000  0.14289000  1.0
  C  C268  1  0.81626000  0.42428000  0.79166000  1.0
  C  C269  1  0.82003000  0.39945000  0.84069000  1.0
  C  C270  1  0.77901000  0.37708000  0.83130000  1.0
  C  C271  1  0.77815000  0.35945000  0.88130000  1.0
  C  C272  1  0.65525000  0.94340000  0.83492000  1.0
  C  C273  1  0.67791000  0.88017000  0.87169000  1.0
  C  C274  1  0.69658000  0.92386000  0.87976000  1.0
  C  C275  1  0.70805000  0.86451000  0.91970000  1.0
  C  C276  1  0.81075000  0.83816000  0.09557000  1.0
  C  C277  1  0.81842000  0.88122000  0.14052000  1.0
  C  C278  1  0.86559000  0.87159000  0.13352000  1.0
  C  C279  1  0.87199000  0.91321000  0.17916000  1.0
  C  C280  1  0.82885000  0.10770000  0.42890000  1.0
  C  C281  1  0.87126000  0.06293000  0.38980000  1.0
  C  C282  1  0.88082000  0.11130000  0.38593000  1.0
  C  C283  1  0.92284000  0.06470000  0.34705000  1.0
  C  C284  1  0.68732000  0.10691000  0.60339000  1.0
  C  C285  1  0.62727000  0.07168000  0.63847000  1.0
  C  C286  1  0.67115000  0.04949000  0.64332000  1.0
  C  C287  1  0.61306000  0.01869000  0.68069000  1.0
  C  C288  1  0.32718000  0.11268000  0.05299000  1.0
  C  C289  1  0.36856000  0.11181000  0.09920000  1.0
  C  C290  1  0.32598000  0.08631000  0.10189000  1.0
  C  C291  1  0.37462000  0.07163000  0.14570000  1.0
  C  C292  1  0.17023000  0.14262000  0.88509000  1.0
  C  C293  1  0.12597000  0.10047000  0.84555000  1.0
  C  C294  1  0.17352000  0.10619000  0.83826000  1.0
  C  C295  1  0.13141000  0.06167000  0.79911000  1.0
  C  C296  1  0.09352000  0.92902000  0.62452000  1.0
  C  C297  1  0.12762000  0.87730000  0.58543000  1.0
  C  C298  1  0.11885000  0.92291000  0.57568000  1.0
  C  C299  1  0.15569000  0.87270000  0.53689000  1.0
  C  C300  1  0.34123000  0.90841000  0.27448000  1.0
  C  C301  1  0.30350000  0.85745000  0.31286000  1.0
  C  C302  1  0.33598000  0.88885000  0.32411000  1.0
  C  C303  1  0.29441000  0.84219000  0.36286000  1.0
  C  C304  1  0.02843000  0.66279000  0.34480000  1.0
  C  C305  1  0.97151000  0.74010000  0.33653000  1.0
  C  C306  1  0.01645000  0.75928000  0.34231000  1.0
  C  C307  1  0.96761000  0.83206000  0.31999000  1.0
  C  C308  1  0.07116000  0.27862000  0.56676000  1.0
  C  C309  1  0.01388000  0.20171000  0.57399000  1.0
  C  C310  1  0.98312000  0.24125000  0.57476000  1.0
  C  C311  1  0.92476000  0.16481000  0.56774000  1.0
  C  C312  1  0.47627000  0.33095000  0.82763000  1.0
  C  C313  1  0.48862000  0.23584000  0.83720000  1.0
  C  C314  1  0.53328000  0.25647000  0.84183000  1.0
  C  C315  1  0.55075000  0.16087000  0.83918000  1.0
  C  C316  1  0.58172000  0.76791000  0.05096000  1.0
  C  C317  1  0.48815000  0.77554000  0.06324000  1.0
  C  C318  1  0.49893000  0.72702000  0.06602000  1.0
  C  C319  1  0.40151000  0.73220000  0.06808000  1.0
  C  C320  1  0.05200000  0.16811000  0.66279000  1.0
  C  C321  1  0.03091000  0.26184000  0.65401000  1.0
  C  C322  1  0.99199000  0.23655000  0.64410000  1.0
  C  C323  1  0.96046000  0.32833000  0.64895000  1.0
  C  C324  1  0.89503000  0.70975000  0.43281000  1.0
  C  C325  1  0.98639000  0.70415000  0.41587000  1.0
  C  C326  1  0.97513000  0.75287000  0.41513000  1.0
  C  C327  1  0.07263000  0.74933000  0.41236000  1.0
  C  C328  1  0.53931000  0.68350000  0.18125000  1.0
  C  C329  1  0.53970000  0.77446000  0.16395000  1.0
  C  C330  1  0.50711000  0.75053000  0.14841000  1.0
  C  C331  1  0.49441000  0.84517000  0.13812000  1.0
  C  C332  1  0.39974000  0.20632000  0.91228000  1.0
  C  C333  1  0.45605000  0.28543000  0.90999000  1.0
  C  C334  1  0.48698000  0.24701000  0.90531000  1.0
  C  C335  1  0.54519000  0.32025000  0.91885000  1.0
  S  S336  1  0.38832000  0.49093000  0.22862000  1.0
  S  S337  1  0.39587000  0.55928000  0.26693000  1.0
  S  S338  1  0.28270000  0.46784000  0.24720000  1.0
  S  S339  1  0.29279000  0.53598000  0.28521000  1.0
  S  S340  1  0.30823000  0.56090000  0.50284000  1.0
  S  S341  1  0.30313000  0.53580000  0.45226000  1.0
  S  S342  1  0.28143000  0.66496000  0.48954000  1.0
  S  S343  1  0.27614000  0.64106000  0.43854000  1.0
  S  S344  1  0.05403000  0.41702000  0.73905000  1.0
  S  S345  1  0.04355000  0.50926000  0.75901000  1.0
  S  S346  1  0.16225000  0.41587000  0.75577000  1.0
  S  S347  1  0.15235000  0.50829000  0.77560000  1.0
  S  S348  1  0.21706000  0.41691000  0.99725000  1.0
  S  S349  1  0.31294000  0.41883000  0.01381000  1.0
  S  S350  1  0.23102000  0.31051000  0.97935000  1.0
  S  S351  1  0.32670000  0.31346000  0.99620000  1.0
  S  S352  1  0.69927000  0.53987000  0.76079000  1.0
  S  S353  1  0.66776000  0.52727000  0.71150000  1.0
  S  S354  1  0.59551000  0.51562000  0.78052000  1.0
  S  S355  1  0.56550000  0.50347000  0.73072000  1.0
  S  S356  1  0.74152000  0.41140000  0.53692000  1.0
  S  S357  1  0.83213000  0.41750000  0.51438000  1.0
  S  S358  1  0.75031000  0.29866000  0.53693000  1.0
  S  S359  1  0.84054000  0.30637000  0.51411000  1.0
  S  S360  1  0.92786000  0.43800000  0.24754000  1.0
  S  S361  1  0.90277000  0.47596000  0.29433000  1.0
  S  S362  1  0.82013000  0.44520000  0.22978000  1.0
  S  S363  1  0.79569000  0.48227000  0.27697000  1.0
  S  S364  1  0.78284000  0.65467000  0.02865000  1.0
  S  S365  1  0.79096000  0.66937000  0.97687000  1.0
  S  S366  1  0.80637000  0.54785000  0.02083000  1.0
  S  S367  1  0.81662000  0.56307000  0.96957000  1.0
  S  S368  1  0.91534000  0.97617000  0.72269000  1.0
  S  S369  1  0.90315000  0.07419000  0.71392000  1.0
  S  S370  1  0.80426000  0.96836000  0.73601000  1.0
  S  S371  1  0.79363000  0.06609000  0.72587000  1.0
  S  S372  1  0.63785000  0.18899000  0.99918000  1.0
  S  S373  1  0.70988000  0.18005000  0.96265000  1.0
  S  S374  1  0.64979000  0.08135000  0.01352000  1.0
  S  S375  1  0.72079000  0.07084000  0.97655000  1.0
  S  S376  1  0.69413000  0.01027000  0.22444000  1.0
  S  S377  1  0.65941000  0.01583000  0.27379000  1.0
  S  S378  1  0.58965000  0.01396000  0.20315000  1.0
  S  S379  1  0.55389000  0.02063000  0.25223000  1.0
  S  S380  1  0.66541000  0.92029000  0.51639000  1.0
  S  S381  1  0.67613000  0.93026000  0.46476000  1.0
  S  S382  1  0.69656000  0.81466000  0.51263000  1.0
  S  S383  1  0.70444000  0.82363000  0.46043000  1.0
  S  S384  1  0.18975000  0.96043000  0.19444000  1.0
  S  S385  1  0.21122000  0.02597000  0.23245000  1.0
  S  S386  1  0.08944000  0.94300000  0.21815000  1.0
  S  S387  1  0.10888000  0.00893000  0.25649000  1.0
  S  S388  1  0.18790000  0.82236000  0.00117000  1.0
  S  S389  1  0.20413000  0.83801000  0.05237000  1.0
  S  S390  1  0.17217000  0.93039000  0.99301000  1.0
  S  S391  1  0.18873000  0.94725000  0.04387000  1.0
  S  S392  1  0.33475000  0.95365000  0.73087000  1.0
  S  S393  1  0.31886000  0.95660000  0.78284000  1.0
  S  S394  1  0.44624000  0.95035000  0.74063000  1.0
  S  S395  1  0.43058000  0.95671000  0.79244000  1.0
  S  S396  1  0.26363000  0.05921000  0.49238000  1.0
  S  S397  1  0.17537000  0.06480000  0.46679000  1.0
  S  S398  1  0.25098000  0.16601000  0.51032000  1.0
  S  S399  1  0.16296000  0.17045000  0.48443000  1.0
  S  S400  1  0.23037000  0.78809000  0.16863000  1.0
  S  S401  1  0.30665000  0.73037000  0.18377000  1.0
  S  S402  1  0.15985000  0.72427000  0.19818000  1.0
  S  S403  1  0.23717000  0.66747000  0.21435000  1.0
  S  S404  1  0.96420000  0.55628000  0.47036000  1.0
  S  S405  1  0.99729000  0.60906000  0.51151000  1.0
  S  S406  1  0.04580000  0.48233000  0.47796000  1.0
  S  S407  1  0.08146000  0.53455000  0.51899000  1.0
  S  S408  1  0.20733000  0.19928000  0.76295000  1.0
  S  S409  1  0.27635000  0.16112000  0.73038000  1.0
  S  S410  1  0.28106000  0.27390000  0.78285000  1.0
  S  S411  1  0.35040000  0.23769000  0.75017000  1.0
  S  S412  1  0.47829000  0.62169000  0.99324000  1.0
  S  S413  1  0.46335000  0.56991000  0.03757000  1.0
  S  S414  1  0.56509000  0.55452000  0.98042000  1.0
  S  S415  1  0.54849000  0.50390000  0.02503000  1.0
  S  S416  1  0.58986000  0.26247000  0.71807000  1.0
  S  S417  1  0.64136000  0.21001000  0.68257000  1.0
  S  S418  1  0.64453000  0.35344000  0.70243000  1.0
  S  S419  1  0.69382000  0.30165000  0.66597000  1.0
  S  S420  1  0.67720000  0.73198000  0.26490000  1.0
  S  S421  1  0.74977000  0.67481000  0.24405000  1.0
  S  S422  1  0.74841000  0.81881000  0.26825000  1.0
  S  S423  1  0.82075000  0.76127000  0.24750000  1.0
  S  S424  1  0.40693000  0.94662000  0.98049000  1.0
  S  S425  1  0.46340000  0.01868000  0.95912000  1.0
  S  S426  1  0.49823000  0.87931000  0.98275000  1.0
  S  S427  1  0.55233000  0.95278000  0.96104000  1.0
  S  S428  1  0.90652000  0.93521000  0.49605000  1.0
  S  S429  1  0.93682000  0.99860000  0.45850000  1.0
  S  S430  1  0.99241000  0.86681000  0.48238000  1.0
  S  S431  1  0.02027000  0.93075000  0.44471000  1.0
  S  S432  1  0.19225000  0.44178000  0.42131000  1.0
  S  S433  1  0.15233000  0.35218000  0.41132000  1.0
  S  S434  1  0.16024000  0.47810000  0.36797000  1.0
  S  S435  1  0.12186000  0.38818000  0.35670000  1.0
  S  S436  1  0.27206000  0.32084000  0.63214000  1.0
  S  S437  1  0.36305000  0.34222000  0.61359000  1.0
  S  S438  1  0.30234000  0.36007000  0.68546000  1.0
  S  S439  1  0.39411000  0.38034000  0.66732000  1.0
  S  S440  1  0.32158000  0.64869000  0.91744000  1.0
  S  S441  1  0.34727000  0.56002000  0.93799000  1.0
  S  S442  1  0.36553000  0.61569000  0.86493000  1.0
  S  S443  1  0.39250000  0.52827000  0.88648000  1.0
  S  S444  1  0.19050000  0.52881000  0.18186000  1.0
  S  S445  1  0.09478000  0.54763000  0.17247000  1.0
  S  S446  1  0.22041000  0.59802000  0.13776000  1.0
  S  S447  1  0.12378000  0.61558000  0.12710000  1.0
  S  S448  1  0.86045000  0.61775000  0.65621000  1.0
  S  S449  1  0.93168000  0.56175000  0.63439000  1.0
  S  S450  1  0.83137000  0.65693000  0.60222000  1.0
  S  S451  1  0.90270000  0.59946000  0.58116000  1.0
  S  S452  1  0.60854000  0.63630000  0.39454000  1.0
  S  S453  1  0.69591000  0.58985000  0.38559000  1.0
  S  S454  1  0.56997000  0.59868000  0.34175000  1.0
  S  S455  1  0.65692000  0.55117000  0.33436000  1.0
  S  S456  1  0.59706000  0.48324000  0.12111000  1.0
  S  S457  1  0.57068000  0.38887000  0.13152000  1.0
  S  S458  1  0.64377000  0.45034000  0.07024000  1.0
  S  S459  1  0.61473000  0.35621000  0.07894000  1.0
  S  S460  1  0.82732000  0.39362000  0.87288000  1.0
  S  S461  1  0.74505000  0.34899000  0.85409000  1.0
  S  S462  1  0.85069000  0.43281000  0.81857000  1.0
  S  S463  1  0.76850000  0.38781000  0.79967000  1.0
  S  S464  1  0.67977000  0.83591000  0.89464000  1.0
  S  S465  1  0.71820000  0.92302000  0.91024000  1.0
  S  S466  1  0.64928000  0.88331000  0.84263000  1.0
  S  S467  1  0.68548000  0.97098000  0.85946000  1.0
  S  S468  1  0.81292000  0.90833000  0.16940000  1.0
  S  S469  1  0.90773000  0.88825000  0.15592000  1.0
  S  S470  1  0.77586000  0.86272000  0.11909000  1.0
  S  S471  1  0.87041000  0.84409000  0.10443000  1.0
  S  S472  1  0.89497000  0.02529000  0.36738000  1.0
  S  S473  1  0.91278000  0.12219000  0.35853000  1.0
  S  S474  1  0.83770000  0.05130000  0.41614000  1.0
  S  S475  1  0.85829000  0.14821000  0.40949000  1.0
  S  S476  1  0.58398000  0.05882000  0.66065000  1.0
  S  S477  1  0.67128000  0.01332000  0.66972000  1.0
  S  S478  1  0.62798000  0.11021000  0.61287000  1.0
  S  S479  1  0.71640000  0.06681000  0.62326000  1.0
  S  S480  1  0.40729000  0.10596000  0.12469000  1.0
  S  S481  1  0.32194000  0.05641000  0.13022000  1.0
  S  S482  1  0.37774000  0.13271000  0.06893000  1.0
  S  S483  1  0.29326000  0.08040000  0.07426000  1.0
  S  S484  1  0.09031000  0.07342000  0.82279000  1.0
  S  S485  1  0.18636000  0.08353000  0.80899000  1.0
  S  S486  1  0.11478000  0.12022000  0.87590000  1.0
  S  S487  1  0.20955000  0.13299000  0.86051000  1.0
  S  S488  1  0.15122000  0.83739000  0.56372000  1.0
  S  S489  1  0.13421000  0.92920000  0.54444000  1.0
  S  S490  1  0.11471000  0.87219000  0.61718000  1.0
  S  S491  1  0.09660000  0.96330000  0.59734000  1.0
  S  S492  1  0.27119000  0.82332000  0.33414000  1.0
  S  S493  1  0.33674000  0.88590000  0.35657000  1.0
  S  S494  1  0.30034000  0.86307000  0.28044000  1.0
  S  S495  1  0.36496000  0.92633000  0.30319000  1.0
  S  S496  1  0.93417000  0.77998000  0.32113000  1.0
  S  S497  1  0.02314000  0.81822000  0.33281000  1.0
  S  S498  1  0.97035000  0.67820000  0.33642000  1.0
  S  S499  1  0.05968000  0.71610000  0.34773000  1.0
  S  S500  1  0.98464000  0.14825000  0.56830000  1.0
  S  S501  1  0.92355000  0.22649000  0.57093000  1.0
  S  S502  1  0.07297000  0.21677000  0.56885000  1.0
  S  S503  1  0.01154000  0.29519000  0.56935000  1.0
  S  S504  1  0.49072000  0.17411000  0.83395000  1.0
  S  S505  1  0.57941000  0.21527000  0.84357000  1.0
  S  S506  1  0.44605000  0.27677000  0.82706000  1.0
  S  S507  1  0.53490000  0.31736000  0.83592000  1.0
  S  S508  1  0.42739000  0.78768000  0.06276000  1.0
  S  S509  1  0.44867000  0.69161000  0.06947000  1.0
  S  S510  1  0.53605000  0.80970000  0.05348000  1.0
  S  S511  1  0.55727000  0.71246000  0.05784000  1.0
  S  S512  1  0.01909000  0.32183000  0.65927000  1.0
  S  S513  1  0.94152000  0.27183000  0.63974000  1.0
  S  S514  1  0.07365000  0.22543000  0.66785000  1.0
  S  S515  1  0.99685000  0.17504000  0.64796000  1.0
  S  S516  1  0.04736000  0.69300000  0.41573000  1.0
  S  S517  1  0.02495000  0.78920000  0.41305000  1.0
  S  S518  1  0.94026000  0.66881000  0.42687000  1.0
  S  S519  1  0.91856000  0.76583000  0.42653000  1.0
  S  S520  1  0.53805000  0.83599000  0.16101000  1.0
  S  S521  1  0.47239000  0.78893000  0.13024000  1.0
  S  S522  1  0.56448000  0.73895000  0.18722000  1.0
  S  S523  1  0.50020000  0.69041000  0.15593000  1.0
  S  S524  1  0.48530000  0.33647000  0.92016000  1.0
  S  S525  1  0.54663000  0.26067000  0.91002000  1.0
  S  S526  1  0.39766000  0.26802000  0.91531000  1.0
  S  S527  1  0.45922000  0.19191000  0.90687000  1.0
  O  O528  1  0.03511000  0.45369000  0.26552000  1.0
  O  O529  1  0.00959000  0.50506000  0.29820000  1.0
  O  O530  1  0.02710000  0.58307000  0.32581000  1.0
  O  O531  1  0.09963000  0.61508000  0.33719000  1.0
  O  O532  1  0.09352000  0.51303000  0.32402000  1.0
  O  O533  1  0.10678000  0.44204000  0.30057000  1.0
  O  O534  1  0.09885000  0.47848000  0.23094000  1.0
  O  O535  1  0.14622000  0.54698000  0.23317000  1.0
  O  O536  1  0.16642000  0.62541000  0.25349000  1.0
  O  O537  1  0.09935000  0.65008000  0.23154000  1.0
  O  O538  1  0.18484000  0.54587000  0.27893000  1.0
  O  O539  1  0.17105000  0.46698000  0.26526000  1.0
  O  O540  1  0.09418000  0.52455000  0.27473000  1.0
  O  O541  1  0.16083000  0.33807000  0.47107000  1.0
  O  O542  1  0.20242000  0.40975000  0.47664000  1.0
  O  O543  1  0.25372000  0.46488000  0.50574000  1.0
  O  O544  1  0.30236000  0.42652000  0.47680000  1.0
  O  O545  1  0.16316000  0.44884000  0.51738000  1.0
  O  O546  1  0.10607000  0.39840000  0.49816000  1.0
  O  O547  1  0.15055000  0.27071000  0.50555000  1.0
  O  O548  1  0.22436000  0.27263000  0.52784000  1.0
  O  O549  1  0.24256000  0.30338000  0.57544000  1.0
  O  O550  1  0.31219000  0.33613000  0.56035000  1.0
  O  O551  1  0.15454000  0.29721000  0.55886000  1.0
  O  O552  1  0.09555000  0.33144000  0.53316000  1.0
  O  O553  1  0.18332000  0.35609000  0.51922000  1.0
  O  O554  1  0.41763000  0.40449000  0.72510000  1.0
  O  O555  1  0.33725000  0.40227000  0.73672000  1.0
  O  O556  1  0.27191000  0.42580000  0.76827000  1.0
  O  O557  1  0.26626000  0.50258000  0.78401000  1.0
  O  O558  1  0.33909000  0.36512000  0.78318000  1.0
  O  O559  1  0.40351000  0.33470000  0.75966000  1.0
  O  O560  1  0.48805000  0.43918000  0.75232000  1.0
  O  O561  1  0.48400000  0.47657000  0.79207000  1.0
  O  O562  1  0.42730000  0.49895000  0.83137000  1.0
  O  O563  1  0.38562000  0.56129000  0.81299000  1.0
  O  O564  1  0.43503000  0.40680000  0.81922000  1.0
  O  O565  1  0.47670000  0.36832000  0.78668000  1.0
  O  O566  1  0.40442000  0.42926000  0.77289000  1.0
  O  O567  1  0.29626000  0.67402000  0.97658000  1.0
  O  O568  1  0.30872000  0.59444000  0.98820000  1.0
  O  O569  1  0.29751000  0.52820000  0.02105000  1.0
  O  O570  1  0.21675000  0.52742000  0.01177000  1.0
  O  O571  1  0.35863000  0.59940000  0.03033000  1.0
  O  O572  1  0.37566000  0.66841000  0.00598000  1.0
  O  O573  1  0.25942000  0.73902000  0.00850000  1.0
  O  O574  1  0.24444000  0.73033000  0.05216000  1.0
  O  O575  1  0.24192000  0.66781000  0.09125000  1.0
  O  O576  1  0.16621000  0.65532000  0.07526000  1.0
  O  O577  1  0.32727000  0.68498000  0.06922000  1.0
  O  O578  1  0.34092000  0.73708000  0.03565000  1.0
  O  O579  1  0.28730000  0.65833000  0.02611000  1.0
  O  O580  1  0.86196000  0.47537000  0.76309000  1.0
  O  O581  1  0.79521000  0.43164000  0.74736000  1.0
  O  O582  1  0.74743000  0.39779000  0.70767000  1.0
  O  O583  1  0.76075000  0.39749000  0.66480000  1.0
  O  O584  1  0.76968000  0.48726000  0.70555000  1.0
  O  O585  1  0.80450000  0.53282000  0.73683000  1.0
  O  O586  1  0.93810000  0.50519000  0.73645000  1.0
  O  O587  1  0.95057000  0.43127000  0.71720000  1.0
  O  O588  1  0.94460000  0.40473000  0.67022000  1.0
  O  O589  1  0.88042000  0.36087000  0.65596000  1.0
  O  O590  1  0.92348000  0.49739000  0.68085000  1.0
  O  O591  1  0.87783000  0.55265000  0.70509000  1.0
  O  O592  1  0.86037000  0.46306000  0.71427000  1.0
  O  O593  1  0.77992000  0.73996000  0.50468000  1.0
  O  O594  1  0.75029000  0.71768000  0.46461000  1.0
  O  O595  1  0.73542000  0.64635000  0.43197000  1.0
  O  O596  1  0.66044000  0.65648000  0.44965000  1.0
  O  O597  1  0.82506000  0.66353000  0.44543000  1.0
  O  O598  1  0.85168000  0.72511000  0.47152000  1.0
  O  O599  1  0.82451000  0.68505000  0.53851000  1.0
  O  O600  1  0.83626000  0.60306000  0.53399000  1.0
  O  O601  1  0.81370000  0.52625000  0.50997000  1.0
  O  O602  1  0.73950000  0.52563000  0.52901000  1.0
  O  O603  1  0.86718000  0.59152000  0.48734000  1.0
  O  O604  1  0.89410000  0.66516000  0.50400000  1.0
  O  O605  1  0.79933000  0.65300000  0.49320000  1.0
  O  O606  1  0.49100000  0.58848000  0.24577000  1.0
  O  O607  1  0.49893000  0.52498000  0.21653000  1.0
  O  O608  1  0.54714000  0.50944000  0.17306000  1.0
  O  O609  1  0.56528000  0.43420000  0.18841000  1.0
  O  O610  1  0.54184000  0.59713000  0.18956000  1.0
  O  O611  1  0.55042000  0.65178000  0.22292000  1.0
  O  O612  1  0.55420000  0.57900000  0.28263000  1.0
  O  O613  1  0.63148000  0.54780000  0.27914000  1.0
  O  O614  1  0.69708000  0.50797000  0.25356000  1.0
  O  O615  1  0.71261000  0.47770000  0.21385000  1.0
  O  O616  1  0.66989000  0.59484000  0.24014000  1.0
  O  O617  1  0.61188000  0.64295000  0.25975000  1.0
  O  O618  1  0.58098000  0.56341000  0.23484000  1.0
  O  O619  1  0.62262000  0.29110000  0.97939000  1.0
  O  O620  1  0.69575000  0.29311000  0.95654000  1.0
  O  O621  1  0.71700000  0.33634000  0.91202000  1.0
  O  O622  1  0.78424000  0.37505000  0.92636000  1.0
  O  O623  1  0.62945000  0.33187000  0.92791000  1.0
  O  O624  1  0.57319000  0.36293000  0.95563000  1.0
  O  O625  1  0.63560000  0.34807000  0.01863000  1.0
  O  O626  1  0.68254000  0.41655000  0.01916000  1.0
  O  O627  1  0.74389000  0.46892000  0.99662000  1.0
  O  O628  1  0.80088000  0.44642000  0.96759000  1.0
  O  O629  1  0.65340000  0.46797000  0.98062000  1.0
  O  O630  1  0.58913000  0.41974000  0.99452000  1.0
  O  O631  1  0.66268000  0.37562000  0.97227000  1.0
  O  O632  1  0.55865000  0.95297000  0.75696000  1.0
  O  O633  1  0.53420000  0.00364000  0.79057000  1.0
  O  O634  1  0.55193000  0.08159000  0.81899000  1.0
  O  O635  1  0.62340000  0.11879000  0.82720000  1.0
  O  O636  1  0.62002000  0.01340000  0.81524000  1.0
  O  O637  1  0.63246000  0.94434000  0.79051000  1.0
  O  O638  1  0.62213000  0.97650000  0.72056000  1.0
  O  O639  1  0.58726000  0.05093000  0.71975000  1.0
  O  O640  1  0.63306000  0.13067000  0.72454000  1.0
  O  O641  1  0.55936000  0.15727000  0.73821000  1.0
  O  O642  1  0.68479000  0.05224000  0.73338000  1.0
  O  O643  1  0.69224000  0.97757000  0.75452000  1.0
  O  O644  1  0.61528000  0.02663000  0.76537000  1.0
  O  O645  1  0.67809000  0.81340000  0.95349000  1.0
  O  O646  1  0.72537000  0.88050000  0.96329000  1.0
  O  O647  1  0.71070000  0.95940000  0.98904000  1.0
  O  O648  1  0.66490000  0.97207000  0.02427000  1.0
  O  O649  1  0.63935000  0.90199000  0.98168000  1.0
  O  O650  1  0.60354000  0.82591000  0.98478000  1.0
  O  O651  1  0.71460000  0.74886000  0.98588000  1.0
  O  O652  1  0.73471000  0.75850000  0.02881000  1.0
  O  O653  1  0.74492000  0.81948000  0.06704000  1.0
  O  O654  1  0.82100000  0.82404000  0.05048000  1.0
  O  O655  1  0.65741000  0.80998000  0.04747000  1.0
  O  O656  1  0.63543000  0.75740000  0.01528000  1.0
  O  O657  1  0.69311000  0.83220000  0.00321000  1.0
  O  O658  1  0.92909000  0.91185000  0.21403000  1.0
  O  O659  1  0.85141000  0.93917000  0.22083000  1.0
  O  O660  1  0.79217000  0.98519000  0.24760000  1.0
  O  O661  1  0.76928000  0.99057000  0.28939000  1.0
  O  O662  1  0.82613000  0.90231000  0.26506000  1.0
  O  O663  1  0.88208000  0.85176000  0.24533000  1.0
  O  O664  1  0.00105000  0.91459000  0.24582000  1.0
  O  O665  1  0.99931000  0.97908000  0.27477000  1.0
  O  O666  1  0.95547000  0.00641000  0.31789000  1.0
  O  O667  1  0.92093000  0.07475000  0.30151000  1.0
  O  O668  1  0.95627000  0.91552000  0.30762000  1.0
  O  O669  1  0.95370000  0.85456000  0.27702000  1.0
  O  O670  1  0.91382000  0.93794000  0.26180000  1.0
  O  O671  1  0.83142000  0.14851000  0.46956000  1.0
  O  O672  1  0.78929000  0.07740000  0.46551000  1.0
  O  O673  1  0.73126000  0.01751000  0.48599000  1.0
  O  O674  1  0.67589000  0.03514000  0.51660000  1.0
  O  O675  1  0.82250000  0.02080000  0.50098000  1.0
  O  O676  1  0.88311000  0.07505000  0.48879000  1.0
  O  O677  1  0.84344000  0.19751000  0.51215000  1.0
  O  O678  1  0.77217000  0.18619000  0.53598000  1.0
  O  O679  1  0.75507000  0.12984000  0.57718000  1.0
  O  O680  1  0.68013000  0.12701000  0.55876000  1.0
  O  O681  1  0.84141000  0.14501000  0.56070000  1.0
  O  O682  1  0.89764000  0.12388000  0.53056000  1.0
  O  O683  1  0.80828000  0.11025000  0.51410000  1.0
  O  O684  1  0.37854000  0.96904000  0.24753000  1.0
  O  O685  1  0.33467000  0.90520000  0.22903000  1.0
  O  O686  1  0.30894000  0.85915000  0.18748000  1.0
  O  O687  1  0.36713000  0.82526000  0.16237000  1.0
  O  O688  1  0.29865000  0.95113000  0.18774000  1.0
  O  O689  1  0.31762000  0.01220000  0.21597000  1.0
  O  O690  1  0.45164000  0.01224000  0.22572000  1.0
  O  O691  1  0.48603000  0.98434000  0.18839000  1.0
  O  O692  1  0.48034000  0.92783000  0.14958000  1.0
  O  O693  1  0.42236000  0.88886000  0.12692000  1.0
  O  O694  1  0.41312000  0.99766000  0.15632000  1.0
  O  O695  1  0.38995000  0.05024000  0.18976000  1.0
  O  O696  1  0.39274000  0.95702000  0.19913000  1.0
  O  O697  1  0.33766000  0.21206000  0.97603000  1.0
  O  O698  1  0.25797000  0.20580000  0.96038000  1.0
  O  O699  1  0.23000000  0.17154000  0.91452000  1.0
  O  O700  1  0.16627000  0.12925000  0.93035000  1.0
  O  O701  1  0.31943000  0.18371000  0.92511000  1.0
  O  O702  1  0.38475000  0.14928000  0.94506000  1.0
  O  O703  1  0.34289000  0.14819000  0.01231000  1.0
  O  O704  1  0.29528000  0.07936000  0.01399000  1.0
  O  O705  1  0.23803000  0.01935000  0.99077000  1.0
  O  O706  1  0.19444000  0.06081000  0.02085000  1.0
  O  O707  1  0.32433000  0.03288000  0.97211000  1.0
  O  O708  1  0.38770000  0.08623000  0.98121000  1.0
  O  O709  1  0.30362000  0.12540000  0.96768000  1.0
  O  O710  1  0.01491000  0.07387000  0.72540000  1.0
  O  O711  1  0.02398000  0.00946000  0.69692000  1.0
  O  O712  1  0.07187000  0.99342000  0.65383000  1.0
  O  O713  1  0.10274000  0.92344000  0.67021000  1.0
  O  O714  1  0.06403000  0.08202000  0.67025000  1.0
  O  O715  1  0.07424000  0.13719000  0.70334000  1.0
  O  O716  1  0.07992000  0.06181000  0.76210000  1.0
  O  O717  1  0.15983000  0.03815000  0.75839000  1.0
  O  O718  1  0.22729000  0.99820000  0.72985000  1.0
  O  O719  1  0.20603000  0.95472000  0.76537000  1.0
  O  O720  1  0.19414000  0.08400000  0.71836000  1.0
  O  O721  1  0.13626000  0.12799000  0.74030000  1.0
  O  O722  1  0.10605000  0.04903000  0.71493000  1.0
  O  O723  1  0.20731000  0.74237000  0.47605000  1.0
  O  O724  1  0.22863000  0.74683000  0.43300000  1.0
  O  O725  1  0.23713000  0.80439000  0.39239000  1.0
  O  O726  1  0.29470000  0.85456000  0.40823000  1.0
  O  O727  1  0.14891000  0.79307000  0.41220000  1.0
  O  O728  1  0.12831000  0.74639000  0.44698000  1.0
  O  O729  1  0.17261000  0.81081000  0.50541000  1.0
  O  O730  1  0.16657000  0.89041000  0.49291000  1.0
  O  O731  1  0.18517000  0.95424000  0.45989000  1.0
  O  O732  1  0.26121000  0.94919000  0.47690000  1.0
  O  O733  1  0.11939000  0.88728000  0.44995000  1.0
  O  O734  1  0.09558000  0.81989000  0.47409000  1.0
  O  O735  1  0.18560000  0.82306000  0.45581000  1.0
