# generated using pymatgen
data_ZnH6C9O4
_symmetry_space_group_name_H-M   'P 1'
_cell_length_a   38.67070000
_cell_length_b   46.91296304
_cell_length_c   46.90700000
_cell_angle_alpha   120.00138468
_cell_angle_beta   89.99900000
_cell_angle_gamma   89.99999996
_symmetry_Int_Tables_number   1
_chemical_formula_structural   ZnH6C9O4
_chemical_formula_sum   'Zn48 H288 C432 O192'
_cell_volume   73694.84797312
_cell_formula_units_Z   48
loop_
 _symmetry_equiv_pos_site_id
 _symmetry_equiv_pos_as_xyz
  1  'x, y, z'
loop_
 _atom_site_type_symbol
 _atom_site_label
 _atom_site_symmetry_multiplicity
 _atom_site_fract_x
 _atom_site_fract_y
 _atom_site_fract_z
 _atom_site_occupancy
  Zn  Zn0  1  0.83241000  0.60665000  0.13105000  1.0
  Zn  Zn1  1  0.80128000  0.63827000  0.11159000  1.0
  Zn  Zn2  1  0.53440000  0.84894000  0.54459000  1.0
  Zn  Zn3  1  0.97194000  0.82718000  0.53262000  1.0
  Zn  Zn4  1  0.93484000  0.60925000  0.49154000  1.0
  Zn  Zn5  1  0.48881000  0.62073000  0.52433000  1.0
  Zn  Zn6  1  0.78964000  0.84421000  0.39771000  1.0
  Zn  Zn7  1  0.82403000  0.83785000  0.35254000  1.0
  Zn  Zn8  1  0.33167000  0.59972000  0.12295000  1.0
  Zn  Zn9  1  0.30121000  0.63565000  0.10838000  1.0
  Zn  Zn10  1  0.03323000  0.82374000  0.53256000  1.0
  Zn  Zn11  1  0.47363000  0.86184000  0.54800000  1.0
  Zn  Zn12  1  0.42414000  0.62264000  0.49221000  1.0
  Zn  Zn13  1  0.00348000  0.59725000  0.51070000  1.0
  Zn  Zn14  1  0.28575000  0.84195000  0.39585000  1.0
  Zn  Zn15  1  0.31984000  0.83496000  0.35012000  1.0
  Zn  Zn16  1  0.89361000  0.42198000  0.58593000  1.0
  Zn  Zn17  1  0.87693000  0.47972000  0.62658000  1.0
  Zn  Zn18  1  0.67225000  0.48040000  0.35176000  1.0
  Zn  Zn19  1  0.62137000  0.45110000  0.32568000  1.0
  Zn  Zn20  1  0.89026000  0.47409000  0.86172000  1.0
  Zn  Zn21  1  0.91948000  0.52165000  0.87054000  1.0
  Zn  Zn22  1  0.59951000  0.46480000  0.10164000  1.0
  Zn  Zn23  1  0.65893000  0.44713000  0.09669000  1.0
  Zn  Zn24  1  0.39348000  0.42545000  0.57815000  1.0
  Zn  Zn25  1  0.36671000  0.48678000  0.63333000  1.0
  Zn  Zn26  1  0.17346000  0.47072000  0.33829000  1.0
  Zn  Zn27  1  0.12256000  0.44267000  0.31149000  1.0
  Zn  Zn28  1  0.38857000  0.46707000  0.85712000  1.0
  Zn  Zn29  1  0.41670000  0.51468000  0.86454000  1.0
  Zn  Zn30  1  0.09437000  0.46770000  0.09602000  1.0
  Zn  Zn31  1  0.15185000  0.44474000  0.08452000  1.0
  Zn  Zn32  1  0.64404000  0.34209000  0.86492000  1.0
  Zn  Zn33  1  0.58368000  0.34606000  0.87293000  1.0
  Zn  Zn34  1  0.65569000  0.31685000  0.46194000  1.0
  Zn  Zn35  1  0.71445000  0.33008000  0.45588000  1.0
  Zn  Zn36  1  0.14063000  0.33843000  0.85177000  1.0
  Zn  Zn37  1  0.08015000  0.34367000  0.85631000  1.0
  Zn  Zn38  1  0.15193000  0.31659000  0.45616000  1.0
  Zn  Zn39  1  0.20982000  0.32434000  0.44366000  1.0
  Zn  Zn40  1  0.76620000  0.10167000  0.50191000  1.0
  Zn  Zn41  1  0.75652000  0.09846000  0.44733000  1.0
  Zn  Zn42  1  0.52029000  0.10908000  0.60986000  1.0
  Zn  Zn43  1  0.57453000  0.11082000  0.63746000  1.0
  Zn  Zn44  1  0.25096000  0.09594000  0.48761000  1.0
  Zn  Zn45  1  0.23322000  0.09864000  0.43800000  1.0
  Zn  Zn46  1  0.02300000  0.09657000  0.62268000  1.0
  Zn  Zn47  1  0.07917000  0.08436000  0.63606000  1.0
  H  H48  1  0.69941000  0.59497000  0.08667000  1.0
  H  H49  1  0.58289000  0.61851000  0.44748000  1.0
  H  H50  1  0.49551000  0.62108000  0.41942000  1.0
  H  H51  1  0.52846000  0.64424000  0.44914000  1.0
  H  H52  1  0.86952000  0.79070000  0.42166000  1.0
  H  H53  1  0.92322000  0.77796000  0.44089000  1.0
  H  H54  1  0.92779000  0.84702000  0.38832000  1.0
  H  H55  1  0.98101000  0.83592000  0.40920000  1.0
  H  H56  1  0.01235000  0.80776000  0.43127000  1.0
  H  H57  1  0.99234000  0.77119000  0.42545000  1.0
  H  H58  1  0.77578000  0.73300000  0.19219000  1.0
  H  H59  1  0.75354000  0.77379000  0.24613000  1.0
  H  H60  1  0.81281000  0.67414000  0.23322000  1.0
  H  H61  1  0.79031000  0.71524000  0.28726000  1.0
  H  H62  1  0.74091000  0.75638000  0.31383000  1.0
  H  H63  1  0.72994000  0.78279000  0.29839000  1.0
  H  H64  1  0.52359000  0.77149000  0.56901000  1.0
  H  H65  1  0.50538000  0.72931000  0.58223000  1.0
  H  H66  1  0.92717000  0.75898000  0.55536000  1.0
  H  H67  1  0.91755000  0.71863000  0.57276000  1.0
  H  H68  1  0.93974000  0.68793000  0.59813000  1.0
  H  H69  1  0.98560000  0.68601000  0.60432000  1.0
  H  H70  1  0.96714000  0.60160000  0.18429000  1.0
  H  H71  1  0.82803000  0.62893000  0.47338000  1.0
  H  H72  1  0.84283000  0.61458000  0.43263000  1.0
  H  H73  1  0.68756000  0.91093000  0.48487000  1.0
  H  H74  1  0.64885000  0.90602000  0.52350000  1.0
  H  H75  1  0.72457000  0.81216000  0.45043000  1.0
  H  H76  1  0.68481000  0.80681000  0.48804000  1.0
  H  H77  1  0.64895000  0.87395000  0.55855000  1.0
  H  H78  1  0.64710000  0.83037000  0.53432000  1.0
  H  H79  1  0.87882000  0.60708000  0.95658000  1.0
  H  H80  1  0.88242000  0.64177000  0.01625000  1.0
  H  H81  1  0.89620000  0.64759000  0.06791000  1.0
  H  H82  1  0.91303000  0.61157000  0.06734000  1.0
  H  H83  1  0.79905000  0.95082000  0.44765000  1.0
  H  H84  1  0.81582000  0.92609000  0.34678000  1.0
  H  H85  1  0.48221000  0.94477000  0.64401000  1.0
  H  H86  1  0.52725000  0.93538000  0.64395000  1.0
  H  H87  1  0.19707000  0.59761000  0.08573000  1.0
  H  H88  1  0.08499000  0.60888000  0.43778000  1.0
  H  H89  1  0.99474000  0.61330000  0.41462000  1.0
  H  H90  1  0.02963000  0.63545000  0.44220000  1.0
  H  H91  1  0.37589000  0.81054000  0.43408000  1.0
  H  H92  1  0.43185000  0.81144000  0.45920000  1.0
  H  H93  1  0.42028000  0.86597000  0.39237000  1.0
  H  H94  1  0.47536000  0.86855000  0.41891000  1.0
  H  H95  1  0.51080000  0.85823000  0.45382000  1.0
  H  H96  1  0.50457000  0.81590000  0.44015000  1.0
  H  H97  1  0.27644000  0.72658000  0.19433000  1.0
  H  H98  1  0.25632000  0.76391000  0.25034000  1.0
  H  H99  1  0.32240000  0.66381000  0.22701000  1.0
  H  H100  1  0.30225000  0.70148000  0.28306000  1.0
  H  H101  1  0.25667000  0.74067000  0.31618000  1.0
  H  H102  1  0.23370000  0.76247000  0.30060000  1.0
  H  H103  1  0.03770000  0.74914000  0.56157000  1.0
  H  H104  1  0.02770000  0.70851000  0.57908000  1.0
  H  H105  1  0.41672000  0.78723000  0.55354000  1.0
  H  H106  1  0.39889000  0.74506000  0.56642000  1.0
  H  H107  1  0.41131000  0.71189000  0.59088000  1.0
  H  H108  1  0.45389000  0.71328000  0.60722000  1.0
  H  H109  1  0.46154000  0.58986000  0.17578000  1.0
  H  H110  1  0.32165000  0.62763000  0.45335000  1.0
  H  H111  1  0.34250000  0.60633000  0.41455000  1.0
  H  H112  1  0.17275000  0.89763000  0.47102000  1.0
  H  H113  1  0.13521000  0.89249000  0.51022000  1.0
  H  H114  1  0.22743000  0.80972000  0.45242000  1.0
  H  H115  1  0.18889000  0.80380000  0.49048000  1.0
  H  H116  1  0.14096000  0.86880000  0.55257000  1.0
  H  H117  1  0.14707000  0.82548000  0.53330000  1.0
  H  H118  1  0.37431000  0.60115000  0.94881000  1.0
  H  H119  1  0.37884000  0.63661000  0.00833000  1.0
  H  H120  1  0.39315000  0.64333000  0.06024000  1.0
  H  H121  1  0.41095000  0.60751000  0.05949000  1.0
  H  H122  1  0.28469000  0.94803000  0.43501000  1.0
  H  H123  1  0.28811000  0.91236000  0.33053000  1.0
  H  H124  1  0.95631000  0.95450000  0.59442000  1.0
  H  H125  1  0.05835000  0.93633000  0.61898000  1.0
  H  H126  1  0.96464000  0.91950000  0.61984000  1.0
  H  H127  1  0.00732000  0.91134000  0.62885000  1.0
  H  H128  1  0.79256000  0.59055000  0.48587000  1.0
  H  H129  1  0.28476000  0.59427000  0.47242000  1.0
  H  H130  1  0.77536000  0.48628000  0.59674000  1.0
  H  H131  1  0.71878000  0.47229000  0.56988000  1.0
  H  H132  1  0.67976000  0.43119000  0.53214000  1.0
  H  H133  1  0.66616000  0.41120000  0.55432000  1.0
  H  H134  1  0.65354000  0.55359000  0.06296000  1.0
  H  H135  1  0.77309000  0.51892000  0.06994000  1.0
  H  H136  1  0.72752000  0.47744000  0.04492000  1.0
  H  H137  1  0.66810000  0.46581000  0.01478000  1.0
  H  H138  1  0.63524000  0.49707000  0.03273000  1.0
  H  H139  1  0.62098000  0.57043000  0.42056000  1.0
  H  H140  1  0.53292000  0.50965000  0.36862000  1.0
  H  H141  1  0.49533000  0.55774000  0.39529000  1.0
  H  H142  1  0.98236000  0.41706000  0.81935000  1.0
  H  H143  1  0.02446000  0.50714000  0.89877000  1.0
  H  H144  1  0.57468000  0.48762000  0.90438000  1.0
  H  H145  1  0.61620000  0.44467000  0.88422000  1.0
  H  H146  1  0.61230000  0.41982000  0.84088000  1.0
  H  H147  1  0.90971000  0.53691000  0.78839000  1.0
  H  H148  1  0.92832000  0.51663000  0.73174000  1.0
  H  H149  1  0.87310000  0.43956000  0.76148000  1.0
  H  H150  1  0.89164000  0.41955000  0.70474000  1.0
  H  H151  1  0.93930000  0.42646000  0.67347000  1.0
  H  H152  1  0.95613000  0.46639000  0.68623000  1.0
  H  H153  1  0.60607000  0.44728000  0.23462000  1.0
  H  H154  1  0.60669000  0.46913000  0.19709000  1.0
  H  H155  1  0.70732000  0.48899000  0.27037000  1.0
  H  H156  1  0.70801000  0.51032000  0.23241000  1.0
  H  H157  1  0.67982000  0.52294000  0.19554000  1.0
  H  H158  1  0.63412000  0.52835000  0.20417000  1.0
  H  H159  1  0.48800000  0.47320000  0.09484000  1.0
  H  H160  1  0.42771000  0.49125000  0.10695000  1.0
  H  H161  1  0.52182000  0.57219000  0.16336000  1.0
  H  H162  1  0.90794000  0.58438000  0.19447000  1.0
  H  H163  1  0.88880000  0.54690000  0.16383000  1.0
  H  H164  1  0.77104000  0.52615000  0.36554000  1.0
  H  H165  1  0.82018000  0.56390000  0.38653000  1.0
  H  H166  1  0.74328000  0.55272000  0.46509000  1.0
  H  H167  1  0.75076000  0.41779000  0.92778000  1.0
  H  H168  1  0.81105000  0.42823000  0.92036000  1.0
  H  H169  1  0.95402000  0.44585000  0.52523000  1.0
  H  H170  1  0.47070000  0.48787000  0.50123000  1.0
  H  H171  1  0.89923000  0.53762000  0.58268000  1.0
  H  H172  1  0.91117000  0.55232000  0.54054000  1.0
  H  H173  1  0.91721000  0.50865000  0.46791000  1.0
  H  H174  1  0.96222000  0.49721000  0.46244000  1.0
  H  H175  1  0.87373000  0.52051000  0.96658000  1.0
  H  H176  1  0.87773000  0.55549000  0.02660000  1.0
  H  H177  1  0.71224000  0.40299000  0.36829000  1.0
  H  H178  1  0.25751000  0.44116000  0.61195000  1.0
  H  H179  1  0.20169000  0.42815000  0.58281000  1.0
  H  H180  1  0.30813000  0.43225000  0.52586000  1.0
  H  H181  1  0.25249000  0.42152000  0.49771000  1.0
  H  H182  1  0.18591000  0.42992000  0.50777000  1.0
  H  H183  1  0.16696000  0.41943000  0.53616000  1.0
  H  H184  1  0.14898000  0.55878000  0.06166000  1.0
  H  H185  1  0.26714000  0.51662000  0.06022000  1.0
  H  H186  1  0.21932000  0.47779000  0.03488000  1.0
  H  H187  1  0.15864000  0.47108000  0.00774000  1.0
  H  H188  1  0.12756000  0.50355000  0.02920000  1.0
  H  H189  1  0.12295000  0.56106000  0.40789000  1.0
  H  H190  1  0.03481000  0.50277000  0.35270000  1.0
  H  H191  1  0.99736000  0.55056000  0.38243000  1.0
  H  H192  1  0.48605000  0.41255000  0.82634000  1.0
  H  H193  1  0.51685000  0.50875000  0.90419000  1.0
  H  H194  1  0.08172000  0.48132000  0.88888000  1.0
  H  H195  1  0.12025000  0.43622000  0.85746000  1.0
  H  H196  1  0.10773000  0.40937000  0.81601000  1.0
  H  H197  1  0.41735000  0.52099000  0.77750000  1.0
  H  H198  1  0.42992000  0.49728000  0.71901000  1.0
  H  H199  1  0.36294000  0.43218000  0.75692000  1.0
  H  H200  1  0.37520000  0.40887000  0.69828000  1.0
  H  H201  1  0.41657000  0.40672000  0.65860000  1.0
  H  H202  1  0.44677000  0.43914000  0.67114000  1.0
  H  H203  1  0.10925000  0.43852000  0.22051000  1.0
  H  H204  1  0.11030000  0.46145000  0.18400000  1.0
  H  H205  1  0.21042000  0.47969000  0.25736000  1.0
  H  H206  1  0.21162000  0.50204000  0.22028000  1.0
  H  H207  1  0.18485000  0.51364000  0.18194000  1.0
  H  H208  1  0.14048000  0.52342000  0.19512000  1.0
  H  H209  1  0.98346000  0.48331000  0.10238000  1.0
  H  H210  1  0.92504000  0.50492000  0.12058000  1.0
  H  H211  1  0.02555000  0.58033000  0.16592000  1.0
  H  H212  1  0.40168000  0.56656000  0.17978000  1.0
  H  H213  1  0.38613000  0.53033000  0.14483000  1.0
  H  H214  1  0.27470000  0.51313000  0.35319000  1.0
  H  H215  1  0.32278000  0.55221000  0.37304000  1.0
  H  H216  1  0.23657000  0.55515000  0.45282000  1.0
  H  H217  1  0.24431000  0.41601000  0.91793000  1.0
  H  H218  1  0.30586000  0.42540000  0.91430000  1.0
  H  H219  1  0.46157000  0.46823000  0.53987000  1.0
  H  H220  1  0.96649000  0.46093000  0.48351000  1.0
  H  H221  1  0.38955000  0.54777000  0.59449000  1.0
  H  H222  1  0.39850000  0.56709000  0.55535000  1.0
  H  H223  1  0.40729000  0.52847000  0.48567000  1.0
  H  H224  1  0.45213000  0.51862000  0.47723000  1.0
  H  H225  1  0.36908000  0.51570000  0.96071000  1.0
  H  H226  1  0.37404000  0.55141000  0.02049000  1.0
  H  H227  1  0.78729000  0.38639000  0.57670000  1.0
  H  H228  1  0.72993000  0.37283000  0.55135000  1.0
  H  H229  1  0.03986000  0.39195000  0.80828000  1.0
  H  H230  1  0.53344000  0.36651000  0.46295000  1.0
  H  H231  1  0.47445000  0.37032000  0.48335000  1.0
  H  H232  1  0.55941000  0.29794000  0.49581000  1.0
  H  H233  1  0.50045000  0.30216000  0.51645000  1.0
  H  H234  1  0.44255000  0.32128000  0.52264000  1.0
  H  H235  1  0.42817000  0.33257000  0.49342000  1.0
  H  H236  1  0.74846000  0.33544000  0.82833000  1.0
  H  H237  1  0.80860000  0.34631000  0.82086000  1.0
  H  H238  1  0.86027000  0.37684000  0.83972000  1.0
  H  H239  1  0.86672000  0.38452000  0.88097000  1.0
  H  H240  1  0.60695000  0.36987000  0.34007000  1.0
  H  H241  1  0.61733000  0.32428000  0.34988000  1.0
  H  H242  1  0.72268000  0.35665000  0.37758000  1.0
  H  H243  1  0.66531000  0.34078000  0.95518000  1.0
  H  H244  1  0.66639000  0.34625000  0.00998000  1.0
  H  H245  1  0.55412000  0.35222000  0.96218000  1.0
  H  H246  1  0.55553000  0.35795000  0.01668000  1.0
  H  H247  1  0.63201000  0.34469000  0.05553000  1.0
  H  H248  1  0.58652000  0.35530000  0.06019000  1.0
  H  H249  1  0.54448000  0.39186000  0.82520000  1.0
  H  H250  1  0.02389000  0.36042000  0.46107000  1.0
  H  H251  1  0.96738000  0.36316000  0.48584000  1.0
  H  H252  1  0.06292000  0.30149000  0.50128000  1.0
  H  H253  1  0.00656000  0.30474000  0.52631000  1.0
  H  H254  1  0.94751000  0.32108000  0.53549000  1.0
  H  H255  1  0.92773000  0.32655000  0.50426000  1.0
  H  H256  1  0.24831000  0.32912000  0.82146000  1.0
  H  H257  1  0.30979000  0.33892000  0.81773000  1.0
  H  H258  1  0.36083000  0.37019000  0.83883000  1.0
  H  H259  1  0.36322000  0.38040000  0.88125000  1.0
  H  H260  1  0.10110000  0.36527000  0.32964000  1.0
  H  H261  1  0.10702000  0.32014000  0.34083000  1.0
  H  H262  1  0.20898000  0.38979000  0.35315000  1.0
  H  H263  1  0.21501000  0.34373000  0.36364000  1.0
  H  H264  1  0.15453000  0.33894000  0.94316000  1.0
  H  H265  1  0.15223000  0.34462000  0.99796000  1.0
  H  H266  1  0.04506000  0.35996000  0.94908000  1.0
  H  H267  1  0.04313000  0.36603000  0.00384000  1.0
  H  H268  1  0.11414000  0.34474000  0.04228000  1.0
  H  H269  1  0.07015000  0.35973000  0.04712000  1.0
  H  H270  1  0.70160000  0.29484000  0.35318000  1.0
  H  H271  1  0.68155000  0.24484000  0.49038000  1.0
  H  H272  1  0.78052000  0.25688000  0.45488000  1.0
  H  H273  1  0.53879000  0.25363000  0.80337000  1.0
  H  H274  1  0.63313000  0.26580000  0.76129000  1.0
  H  H275  1  0.65614000  0.28904000  0.35667000  1.0
  H  H276  1  0.17864000  0.24786000  0.48823000  1.0
  H  H277  1  0.27603000  0.25257000  0.44551000  1.0
  H  H278  1  0.03595000  0.26564000  0.76860000  1.0
  H  H279  1  0.18672000  0.28341000  0.34115000  1.0
  H  H280  1  0.14130000  0.28370000  0.34976000  1.0
  H  H281  1  0.70863000  0.20869000  0.50779000  1.0
  H  H282  1  0.80714000  0.22073000  0.47197000  1.0
  H  H283  1  0.77088000  0.20738000  0.53370000  1.0
  H  H284  1  0.80625000  0.19710000  0.50621000  1.0
  H  H285  1  0.51683000  0.21588000  0.74831000  1.0
  H  H286  1  0.61079000  0.22797000  0.70596000  1.0
  H  H287  1  0.55494000  0.21561000  0.67574000  1.0
  H  H288  1  0.51630000  0.21118000  0.69317000  1.0
  H  H289  1  0.20469000  0.21023000  0.50424000  1.0
  H  H290  1  0.30159000  0.21491000  0.46122000  1.0
  H  H291  1  0.26833000  0.20202000  0.52413000  1.0
  H  H292  1  0.13429000  0.23146000  0.78366000  1.0
  H  H293  1  0.01704000  0.20884000  0.73385000  1.0
  H  H294  1  0.30062000  0.18868000  0.49320000  1.0
  H  H295  1  0.93313000  0.14261000  0.60469000  1.0
  H  H296  1  0.87509000  0.15543000  0.59314000  1.0
  H  H297  1  0.81035000  0.15124000  0.60613000  1.0
  H  H298  1  0.11501000  0.17433000  0.74882000  1.0
  H  H299  1  0.02107000  0.15511000  0.73047000  1.0
  H  H300  1  0.06132000  0.14095000  0.73762000  1.0
  H  H301  1  0.42092000  0.14011000  0.59643000  1.0
  H  H302  1  0.35856000  0.14461000  0.59091000  1.0
  H  H303  1  0.57074000  0.10850000  0.52614000  1.0
  H  H304  1  0.60591000  0.09376000  0.47720000  1.0
  H  H305  1  0.79394000  0.11237000  0.59791000  1.0
  H  H306  1  0.06629000  0.12623000  0.55462000  1.0
  H  H307  1  0.09044000  0.11864000  0.50296000  1.0
  H  H308  1  0.12552000  0.08844000  0.45536000  1.0
  H  H309  1  0.30175000  0.11709000  0.58279000  1.0
  H  H310  1  0.64859000  0.06700000  0.56083000  1.0
  H  H311  1  0.68281000  0.05109000  0.51140000  1.0
  H  H312  1  0.65232000  0.06323000  0.44110000  1.0
  H  H313  1  0.67284000  0.03367000  0.44865000  1.0
  H  H314  1  0.89113000  0.06048000  0.61080000  1.0
  H  H315  1  0.83356000  0.07291000  0.59851000  1.0
  H  H316  1  0.84684000  0.03633000  0.40735000  1.0
  H  H317  1  0.85626000  0.04048000  0.44688000  1.0
  H  H318  1  0.14459000  0.06147000  0.55644000  1.0
  H  H319  1  0.16739000  0.05261000  0.50423000  1.0
  H  H320  1  0.14024000  0.04998000  0.44937000  1.0
  H  H321  1  0.41334000  0.03415000  0.53748000  1.0
  H  H322  1  0.35093000  0.03897000  0.53211000  1.0
  H  H323  1  0.29838000  0.07366000  0.56034000  1.0
  H  H324  1  0.29345000  0.96870000  0.34133000  1.0
  H  H325  1  0.81308000  0.00844000  0.46597000  1.0
  H  H326  1  0.47863000  0.02642000  0.61162000  1.0
  H  H327  1  0.57942000  0.02854000  0.65256000  1.0
  H  H328  1  0.29118000  0.00449000  0.44587000  1.0
  H  H329  1  0.30660000  0.02449000  0.37687000  1.0
  H  H330  1  0.32855000  0.03082000  0.41336000  1.0
  H  H331  1  0.97696000  0.00513000  0.59732000  1.0
  H  H332  1  0.07926000  0.98693000  0.62203000  1.0
  H  H333  1  0.46616000  0.97413000  0.60931000  1.0
  H  H334  1  0.56692000  0.97625000  0.64982000  1.0
  H  H335  1  0.82919000  0.98351000  0.36507000  1.0
  C  C336  1  0.86037000  0.62370000  0.08318000  1.0
  C  C337  1  0.80459000  0.67337000  0.17475000  1.0
  C  C338  1  0.99080000  0.81103000  0.47475000  1.0
  C  C339  1  0.60294000  0.85565000  0.53020000  1.0
  C  C340  1  0.50325000  0.91081000  0.59672000  1.0
  C  C341  1  0.48187000  0.80987000  0.55441000  1.0
  C  C342  1  0.49232000  0.62105000  0.46519000  1.0
  C  C343  1  0.87092000  0.59552000  0.45833000  1.0
  C  C344  1  0.96704000  0.65197000  0.55568000  1.0
  C  C345  1  0.86288000  0.82661000  0.39073000  1.0
  C  C346  1  0.73319000  0.86512000  0.44172000  1.0
  C  C347  1  0.80492000  0.89843000  0.38495000  1.0
  C  C348  1  0.77582000  0.79647000  0.32712000  1.0
  C  C349  1  0.51292000  0.62123000  0.43837000  1.0
  C  C350  1  0.89465000  0.81981000  0.40357000  1.0
  C  C351  1  0.92434000  0.79363000  0.43006000  1.0
  C  C352  1  0.89374000  0.80076000  0.41898000  1.0
  C  C353  1  0.95612000  0.80658000  0.42715000  1.0
  C  C354  1  0.92646000  0.83218000  0.40007000  1.0
  C  C355  1  0.95684000  0.82595000  0.41209000  1.0
  C  C356  1  0.98943000  0.79838000  0.43838000  1.0
  C  C357  1  0.79568000  0.70007000  0.20829000  1.0
  C  C358  1  0.76677000  0.75228000  0.24358000  1.0
  C  C359  1  0.77954000  0.72891000  0.21275000  1.0
  C  C360  1  0.76962000  0.74717000  0.27050000  1.0
  C  C361  1  0.80037000  0.69599000  0.23578000  1.0
  C  C362  1  0.78747000  0.71939000  0.26664000  1.0
  C  C363  1  0.75217000  0.77040000  0.30271000  1.0
  C  C364  1  0.47161000  0.78292000  0.56048000  1.0
  C  C365  1  0.48594000  0.74184000  0.57588000  1.0
  C  C366  1  0.49632000  0.76586000  0.56824000  1.0
  C  C367  1  0.97186000  0.71115000  0.57799000  1.0
  C  C368  1  0.94946000  0.74836000  0.56060000  1.0
  C  C369  1  0.94385000  0.72544000  0.57077000  1.0
  C  C370  1  0.96564000  0.68460000  0.58658000  1.0
  C  C371  1  0.83745000  0.60661000  0.45088000  1.0
  C  C372  1  0.70925000  0.86199000  0.46471000  1.0
  C  C373  1  0.66463000  0.88509000  0.50707000  1.0
  C  C374  1  0.68704000  0.88800000  0.48520000  1.0
  C  C375  1  0.66317000  0.85574000  0.50824000  1.0
  C  C376  1  0.70795000  0.83273000  0.46605000  1.0
  C  C377  1  0.68499000  0.82956000  0.48737000  1.0
  C  C378  1  0.64138000  0.85342000  0.53393000  1.0
  C  C379  1  0.88098000  0.60120000  0.02587000  1.0
  C  C380  1  0.87750000  0.59554000  0.97161000  1.0
  C  C381  1  0.87974000  0.61540000  0.00574000  1.0
  C  C382  1  0.88983000  0.62207000  0.06192000  1.0
  C  C383  1  0.80659000  0.93391000  0.39581000  1.0
  C  C384  1  0.80483000  0.95781000  0.42936000  1.0
  C  C385  1  0.81444000  0.94391000  0.37284000  1.0
  C  C386  1  0.50691000  0.94045000  0.63031000  1.0
  C  C387  1  0.35878000  0.61951000  0.07690000  1.0
  C  C388  1  0.30780000  0.66683000  0.17137000  1.0
  C  C389  1  0.49344000  0.84854000  0.49093000  1.0
  C  C390  1  0.09911000  0.84058000  0.52203000  1.0
  C  C391  1  0.99279000  0.88234000  0.57860000  1.0
  C  C392  1  0.98858000  0.78222000  0.54695000  1.0
  C  C393  1  0.99813000  0.60870000  0.45795000  1.0
  C  C394  1  0.36516000  0.59826000  0.45115000  1.0
  C  C395  1  0.44616000  0.67522000  0.55709000  1.0
  C  C396  1  0.36094000  0.83678000  0.39490000  1.0
  C  C397  1  0.22632000  0.85757000  0.43546000  1.0
  C  C398  1  0.29033000  0.89173000  0.37524000  1.0
  C  C399  1  0.27944000  0.78637000  0.32687000  1.0
  C  C400  1  0.01472000  0.61206000  0.43103000  1.0
  C  C401  1  0.39384000  0.83826000  0.41142000  1.0
  C  C402  1  0.42928000  0.82429000  0.44550000  1.0
  C  C403  1  0.39741000  0.82351000  0.43095000  1.0
  C  C404  1  0.45760000  0.84129000  0.44215000  1.0
  C  C405  1  0.42236000  0.85440000  0.40733000  1.0
  C  C406  1  0.45378000  0.85609000  0.42270000  1.0
  C  C407  1  0.49297000  0.84064000  0.45571000  1.0
  C  C408  1  0.30063000  0.69192000  0.20607000  1.0
  C  C409  1  0.27123000  0.74239000  0.24551000  1.0
  C  C410  1  0.28276000  0.72099000  0.21351000  1.0
  C  C411  1  0.27724000  0.73515000  0.27070000  1.0
  C  C412  1  0.30854000  0.68585000  0.23183000  1.0
  C  C413  1  0.29702000  0.70734000  0.26388000  1.0
  C  C414  1  0.26026000  0.75551000  0.30390000  1.0
  C  C415  1  0.98326000  0.75734000  0.55711000  1.0
  C  C416  1  0.00570000  0.71979000  0.57429000  1.0
  C  C417  1  0.01137000  0.74280000  0.56407000  1.0
  C  C418  1  0.45071000  0.73439000  0.57583000  1.0
  C  C419  1  0.43645000  0.77477000  0.55967000  1.0
  C  C420  1  0.42616000  0.75066000  0.56707000  1.0
  C  C421  1  0.43940000  0.70917000  0.58499000  1.0
  C  C422  1  0.33373000  0.60367000  0.43568000  1.0
  C  C423  1  0.20316000  0.85418000  0.45877000  1.0
  C  C424  1  0.15465000  0.87380000  0.49709000  1.0
  C  C425  1  0.17638000  0.87693000  0.47493000  1.0
  C  C426  1  0.15851000  0.84726000  0.50280000  1.0
  C  C427  1  0.20719000  0.82780000  0.46468000  1.0
  C  C428  1  0.18494000  0.82424000  0.48623000  1.0
  C  C429  1  0.13732000  0.84535000  0.52902000  1.0
  C  C430  1  0.37586000  0.61033000  0.99828000  1.0
  C  C431  1  0.38724000  0.61786000  0.05468000  1.0
  C  C432  1  0.28599000  0.92582000  0.38193000  1.0
  C  C433  1  0.28548000  0.95237000  0.41440000  1.0
  C  C434  1  0.28765000  0.93236000  0.35582000  1.0
  C  C435  1  0.98329000  0.96123000  0.59997000  1.0
  C  C436  1  0.00564000  0.94215000  0.60721000  1.0
  C  C437  1  0.04059000  0.95103000  0.61379000  1.0
  C  C438  1  0.99165000  0.91405000  0.61046000  1.0
  C  C439  1  0.82189000  0.44419000  0.59906000  1.0
  C  C440  1  0.91282000  0.47887000  0.57917000  1.0
  C  C441  1  0.91166000  0.45430000  0.65600000  1.0
  C  C442  1  0.76708000  0.58497000  0.09497000  1.0
  C  C443  1  0.88970000  0.58597000  0.15251000  1.0
  C  C444  1  0.60299000  0.50784000  0.37323000  1.0
  C  C445  1  0.72120000  0.51635000  0.40114000  1.0
  C  C446  1  0.65243000  0.41673000  0.34592000  1.0
  C  C447  1  0.65265000  0.46040000  0.28343000  1.0
  C  C448  1  0.95352000  0.54850000  0.49074000  1.0
  C  C449  1  0.96509000  0.47928000  0.86516000  1.0
  C  C450  1  0.86281000  0.42765000  0.87638000  1.0
  C  C451  1  0.88393000  0.54050000  0.92151000  1.0
  C  C452  1  0.89138000  0.49869000  0.81465000  1.0
  C  C453  1  0.65020000  0.47521000  0.06166000  1.0
  C  C454  1  0.54624000  0.51009000  0.12255000  1.0
  C  C455  1  0.62104000  0.39566000  0.07303000  1.0
  C  C456  1  0.64825000  0.48722000  0.15744000  1.0
  C  C457  1  0.78571000  0.43725000  0.58834000  1.0
  C  C458  1  0.73335000  0.45348000  0.57160000  1.0
  C  C459  1  0.76551000  0.46152000  0.58718000  1.0
  C  C460  1  0.72074000  0.42118000  0.55731000  1.0
  C  C461  1  0.77228000  0.40541000  0.57575000  1.0
  C  C462  1  0.73968000  0.39764000  0.56107000  1.0
  C  C463  1  0.68705000  0.41215000  0.53854000  1.0
  C  C464  1  0.73966000  0.56006000  0.08023000  1.0
  C  C465  1  0.67962000  0.54579000  0.06412000  1.0
  C  C466  1  0.70579000  0.56937000  0.07766000  1.0
  C  C467  1  0.68709000  0.51244000  0.05218000  1.0
  C  C468  1  0.74709000  0.52673000  0.06847000  1.0
  C  C469  1  0.72112000  0.50307000  0.05418000  1.0
  C  C470  1  0.65878000  0.48704000  0.03823000  1.0
  C  C471  1  0.58001000  0.53627000  0.39238000  1.0
  C  C472  1  0.57189000  0.59477000  0.43028000  1.0
  C  C473  1  0.59355000  0.56727000  0.41509000  1.0
  C  C474  1  0.53644000  0.59174000  0.42276000  1.0
  C  C475  1  0.54425000  0.53318000  0.38594000  1.0
  C  C476  1  0.52271000  0.56065000  0.40098000  1.0
  C  C477  1  0.99915000  0.46380000  0.86014000  1.0
  C  C478  1  0.03664000  0.41699000  0.82832000  1.0
  C  C479  1  0.00386000  0.43122000  0.83476000  1.0
  C  C480  1  0.56367000  0.43796000  0.86537000  1.0
  C  C481  1  0.02758000  0.48185000  0.87922000  1.0
  C  C482  1  0.55548000  0.47101000  0.88734000  1.0
  C  C483  1  0.59982000  0.42549000  0.86448000  1.0
  C  C484  1  0.89060000  0.48967000  0.77960000  1.0
  C  C485  1  0.91530000  0.49991000  0.73783000  1.0
  C  C486  1  0.90450000  0.51147000  0.77019000  1.0
  C  C487  1  0.91237000  0.46639000  0.71437000  1.0
  C  C488  1  0.88386000  0.45697000  0.75510000  1.0
  C  C489  1  0.89469000  0.44543000  0.72270000  1.0
  C  C490  1  0.93167000  0.45242000  0.68222000  1.0
  C  C491  1  0.65658000  0.46657000  0.25563000  1.0
  C  C492  1  0.62921000  0.47270000  0.21228000  1.0
  C  C493  1  0.62893000  0.46018000  0.23375000  1.0
  C  C494  1  0.65740000  0.49136000  0.21186000  1.0
  C  C495  1  0.68562000  0.48362000  0.25383000  1.0
  C  C496  1  0.68600000  0.49589000  0.23215000  1.0
  C  C497  1  0.65514000  0.50977000  0.19320000  1.0
  C  C498  1  0.50973000  0.52120000  0.12830000  1.0
  C  C499  1  0.44813000  0.50912000  0.11913000  1.0
  C  C500  1  0.48260000  0.49880000  0.11232000  1.0
  C  C501  1  0.94174000  0.55482000  0.15402000  1.0
  C  C502  1  0.50157000  0.55428000  0.15063000  1.0
  C  C503  1  0.97049000  0.57583000  0.16613000  1.0
  C  C504  1  0.90601000  0.56747000  0.16745000  1.0
  C  C505  1  0.75291000  0.53672000  0.41368000  1.0
  C  C506  1  0.80372000  0.56131000  0.40380000  1.0
  C  C507  1  0.77556000  0.53978000  0.39186000  1.0
  C  C508  1  0.80973000  0.58039000  0.43779000  1.0
  C  C509  1  0.76004000  0.55464000  0.44762000  1.0
  C  C510  1  0.78822000  0.57623000  0.45955000  1.0
  C  C511  1  0.76301000  0.40210000  0.90422000  1.0
  C  C512  1  0.79743000  0.40834000  0.89990000  1.0
  C  C513  1  0.92568000  0.49056000  0.55722000  1.0
  C  C514  1  0.95253000  0.47821000  0.50546000  1.0
  C  C515  1  0.94533000  0.46957000  0.52931000  1.0
  C  C516  1  0.94025000  0.50798000  0.50902000  1.0
  C  C517  1  0.91477000  0.52108000  0.56159000  1.0
  C  C518  1  0.92161000  0.52953000  0.53750000  1.0
  C  C519  1  0.94275000  0.51408000  0.48043000  1.0
  C  C520  1  0.87620000  0.56109000  0.95693000  1.0
  C  C521  1  0.87700000  0.56694000  0.01146000  1.0
  C  C522  1  0.87442000  0.54701000  0.97722000  1.0
  C  C523  1  0.32056000  0.44387000  0.58703000  1.0
  C  C524  1  0.41160000  0.48906000  0.58713000  1.0
  C  C525  1  0.40246000  0.44396000  0.64724000  1.0
  C  C526  1  0.26445000  0.58337000  0.08982000  1.0
  C  C527  1  0.38821000  0.57307000  0.13944000  1.0
  C  C528  1  0.10454000  0.49958000  0.35851000  1.0
  C  C529  1  0.22002000  0.51040000  0.38886000  1.0
  C  C530  1  0.15057000  0.40769000  0.33247000  1.0
  C  C531  1  0.15520000  0.45097000  0.26955000  1.0
  C  C532  1  0.44222000  0.56952000  0.50534000  1.0
  C  C533  1  0.46279000  0.47498000  0.86493000  1.0
  C  C534  1  0.36201000  0.42163000  0.87326000  1.0
  C  C535  1  0.37924000  0.53441000  0.91466000  1.0
  C  C536  1  0.39114000  0.48847000  0.80738000  1.0
  C  C537  1  0.14275000  0.47762000  0.05414000  1.0
  C  C538  1  0.04476000  0.51675000  0.12346000  1.0
  C  C539  1  0.10942000  0.39666000  0.06123000  1.0
  C  C540  1  0.14809000  0.48245000  0.14653000  1.0
  C  C541  1  0.28683000  0.43709000  0.57079000  1.0
  C  C542  1  0.22479000  0.42936000  0.57039000  1.0
  C  C543  1  0.25650000  0.43666000  0.58693000  1.0
  C  C544  1  0.22301000  0.42359000  0.53798000  1.0
  C  C545  1  0.28501000  0.43147000  0.53853000  1.0
  C  C546  1  0.25330000  0.42541000  0.52250000  1.0
  C  C547  1  0.18932000  0.41445000  0.51937000  1.0
  C  C548  1  0.23568000  0.56003000  0.07493000  1.0
  C  C549  1  0.17474000  0.54936000  0.06097000  1.0
  C  C550  1  0.20217000  0.57149000  0.07473000  1.0
  C  C551  1  0.18054000  0.51540000  0.04648000  1.0
  C  C552  1  0.24146000  0.52607000  0.06061000  1.0
  C  C553  1  0.21420000  0.50392000  0.04613000  1.0
  C  C554  1  0.15088000  0.49151000  0.03236000  1.0
  C  C555  1  0.08188000  0.52815000  0.37797000  1.0
  C  C556  1  0.07402000  0.58582000  0.41898000  1.0
  C  C557  1  0.09559000  0.55845000  0.40214000  1.0
  C  C558  1  0.03854000  0.58338000  0.41166000  1.0
  C  C559  1  0.04623000  0.52575000  0.37117000  1.0
  C  C560  1  0.02479000  0.55308000  0.38791000  1.0
  C  C561  1  0.49712000  0.46208000  0.86554000  1.0
  C  C562  1  0.53844000  0.41722000  0.84304000  1.0
  C  C563  1  0.50517000  0.42900000  0.84364000  1.0
  C  C564  1  0.06496000  0.43466000  0.84798000  1.0
  C  C565  1  0.52255000  0.48306000  0.88719000  1.0
  C  C566  1  0.06020000  0.46721000  0.87350000  1.0
  C  C567  1  0.09992000  0.41844000  0.84194000  1.0
  C  C568  1  0.38961000  0.47825000  0.77199000  1.0
  C  C569  1  0.41433000  0.48335000  0.72698000  1.0
  C  C570  1  0.40707000  0.49686000  0.76045000  1.0
  C  C571  1  0.40404000  0.45111000  0.70438000  1.0
  C  C572  1  0.37656000  0.44713000  0.74891000  1.0
  C  C573  1  0.38366000  0.43372000  0.71537000  1.0
  C  C574  1  0.41861000  0.43391000  0.66989000  1.0
  C  C575  1  0.15972000  0.45741000  0.24198000  1.0
  C  C576  1  0.13280000  0.46457000  0.19905000  1.0
  C  C577  1  0.13226000  0.45145000  0.22001000  1.0
  C  C578  1  0.16117000  0.48328000  0.19909000  1.0
  C  C579  1  0.18889000  0.47457000  0.24069000  1.0
  C  C580  1  0.18958000  0.48740000  0.21948000  1.0
  C  C581  1  0.15911000  0.50291000  0.18163000  1.0
  C  C582  1  0.00922000  0.53003000  0.13291000  1.0
  C  C583  1  0.94686000  0.52156000  0.13042000  1.0
  C  C584  1  0.98027000  0.50923000  0.12010000  1.0
  C  C585  1  0.44008000  0.54192000  0.14233000  1.0
  C  C586  1  0.00387000  0.56359000  0.15563000  1.0
  C  C587  1  0.46712000  0.56448000  0.15770000  1.0
  C  C588  1  0.40299000  0.55220000  0.15246000  1.0
  C  C589  1  0.25146000  0.53127000  0.40135000  1.0
  C  C590  1  0.30434000  0.55269000  0.39067000  1.0
  C  C591  1  0.27677000  0.53039000  0.37935000  1.0
  C  C592  1  0.30712000  0.57646000  0.42417000  1.0
  C  C593  1  0.25544000  0.55390000  0.43515000  1.0
  C  C594  1  0.28301000  0.57625000  0.44644000  1.0
  C  C595  1  0.25824000  0.39907000  0.89579000  1.0
  C  C596  1  0.29341000  0.40469000  0.89364000  1.0
  C  C597  1  0.42457000  0.50622000  0.57005000  1.0
  C  C598  1  0.45385000  0.50182000  0.52216000  1.0
  C  C599  1  0.44857000  0.49055000  0.54429000  1.0
  C  C600  1  0.43526000  0.52897000  0.52532000  1.0
  C  C601  1  0.40835000  0.53520000  0.57497000  1.0
  C  C602  1  0.41342000  0.54631000  0.55261000  1.0
  C  C603  1  0.43360000  0.53504000  0.49667000  1.0
  C  C604  1  0.37153000  0.55563000  0.95007000  1.0
  C  C605  1  0.37305000  0.56250000  0.00504000  1.0
  C  C606  1  0.36994000  0.54214000  0.97089000  1.0
  C  C607  1  0.37736000  0.59666000  0.01888000  1.0
  C  C608  1  0.37307000  0.59003000  0.96423000  1.0
  C  C609  1  0.29069000  0.96461000  0.36199000  1.0
  C  C610  1  0.85246000  0.39286000  0.86587000  1.0
  C  C611  1  0.43856000  0.37288000  0.54204000  1.0
  C  C612  1  0.60110000  0.39534000  0.86779000  1.0
  C  C613  1  0.70805000  0.36982000  0.88311000  1.0
  C  C614  1  0.60855000  0.34515000  0.92241000  1.0
  C  C615  1  0.68931000  0.37989000  0.50700000  1.0
  C  C616  1  0.58720000  0.33104000  0.46700000  1.0
  C  C617  1  0.68294000  0.31576000  0.40247000  1.0
  C  C618  1  0.55107000  0.33182000  0.47766000  1.0
  C  C619  1  0.49290000  0.35451000  0.48617000  1.0
  C  C620  1  0.52656000  0.35219000  0.47443000  1.0
  C  C621  1  0.48313000  0.33674000  0.50162000  1.0
  C  C622  1  0.54108000  0.31369000  0.49276000  1.0
  C  C623  1  0.50746000  0.31622000  0.50473000  1.0
  C  C624  1  0.44664000  0.33917000  0.51398000  1.0
  C  C625  1  0.74480000  0.37570000  0.87864000  1.0
  C  C626  1  0.79605000  0.36235000  0.84416000  1.0
  C  C627  1  0.76174000  0.35590000  0.84856000  1.0
  C  C628  1  0.81423000  0.38875000  0.86969000  1.0
  C  C629  1  0.65890000  0.38989000  0.35311000  1.0
  C  C630  1  0.63817000  0.34141000  0.35416000  1.0
  C  C631  1  0.63234000  0.36745000  0.34841000  1.0
  C  C632  1  0.67078000  0.33696000  0.36439000  1.0
  C  C633  1  0.69130000  0.38606000  0.36437000  1.0
  C  C634  1  0.69724000  0.35970000  0.36979000  1.0
  C  C635  1  0.67780000  0.30695000  0.36742000  1.0
  C  C636  1  0.60968000  0.34617000  0.95438000  1.0
  C  C637  1  0.64176000  0.34690000  0.99931000  1.0
  C  C638  1  0.64114000  0.34401000  0.96815000  1.0
  C  C639  1  0.61095000  0.35193000  0.01716000  1.0
  C  C640  1  0.57885000  0.35042000  0.97203000  1.0
  C  C641  1  0.57952000  0.35347000  0.00314000  1.0
  C  C642  1  0.61209000  0.36008000  0.05254000  1.0
  C  C643  1  0.93896000  0.37111000  0.54935000  1.0
  C  C644  1  0.09998000  0.38998000  0.84807000  1.0
  C  C645  1  0.20395000  0.36649000  0.87214000  1.0
  C  C646  1  0.10111000  0.34638000  0.90910000  1.0
  C  C647  1  0.18930000  0.37901000  0.49275000  1.0
  C  C648  1  0.08249000  0.33040000  0.46565000  1.0
  C  C649  1  0.17366000  0.30845000  0.39222000  1.0
  C  C650  1  0.04787000  0.33069000  0.47917000  1.0
  C  C651  1  0.98815000  0.34965000  0.48927000  1.0
  C  C652  1  0.02041000  0.34800000  0.47510000  1.0
  C  C653  1  0.98282000  0.33434000  0.50808000  1.0
  C  C654  1  0.04226000  0.31490000  0.49755000  1.0
  C  C655  1  0.01010000  0.31684000  0.51198000  1.0
  C  C656  1  0.94803000  0.33652000  0.52365000  1.0
  C  C657  1  0.24140000  0.37176000  0.86996000  1.0
  C  C658  1  0.29560000  0.35614000  0.83953000  1.0
  C  C659  1  0.26050000  0.35034000  0.84181000  1.0
  C  C660  1  0.31239000  0.38350000  0.86530000  1.0
  C  C661  1  0.35111000  0.38733000  0.86408000  1.0
  C  C662  1  0.15468000  0.38099000  0.34029000  1.0
  C  C663  1  0.12942000  0.33526000  0.34377000  1.0
  C  C664  1  0.12614000  0.36103000  0.33721000  1.0
  C  C665  1  0.16139000  0.32852000  0.35321000  1.0
  C  C666  1  0.18655000  0.37484000  0.35057000  1.0
  C  C667  1  0.18995000  0.34864000  0.35670000  1.0
  C  C668  1  0.16532000  0.29878000  0.35740000  1.0
  C  C669  1  0.10000000  0.34904000  0.94181000  1.0
  C  C670  1  0.12866000  0.34754000  0.98718000  1.0
  C  C671  1  0.13000000  0.34455000  0.95602000  1.0
  C  C672  1  0.09736000  0.35515000  0.00473000  1.0
  C  C673  1  0.06864000  0.35625000  0.95928000  1.0
  C  C674  1  0.06740000  0.35953000  0.99052000  1.0
  C  C675  1  0.09682000  0.36232000  0.03983000  1.0
  C  C676  1  0.59592000  0.29213000  0.81868000  1.0
  C  C677  1  0.71425000  0.27950000  0.46531000  1.0
  C  C678  1  0.72899000  0.25407000  0.47165000  1.0
  C  C679  1  0.76432000  0.24615000  0.46591000  1.0
  C  C680  1  0.58740000  0.26314000  0.78654000  1.0
  C  C681  1  0.60824000  0.25417000  0.75879000  1.0
  C  C682  1  0.09393000  0.28672000  0.80606000  1.0
  C  C683  1  0.21099000  0.27837000  0.45862000  1.0
  C  C684  1  0.22536000  0.25344000  0.46587000  1.0
  C  C685  1  0.08636000  0.25294000  0.77935000  1.0
  C  C686  1  0.05383000  0.24596000  0.76387000  1.0
  C  C687  1  0.55524000  0.24751000  0.78237000  1.0
  C  C688  1  0.72425000  0.21855000  0.49555000  1.0
  C  C689  1  0.70885000  0.23926000  0.48567000  1.0
  C  C690  1  0.75992000  0.21211000  0.49130000  1.0
  C  C691  1  0.77958000  0.22533000  0.47554000  1.0
  C  C692  1  0.77771000  0.19484000  0.50711000  1.0
  C  C693  1  0.54268000  0.22582000  0.75092000  1.0
  C  C694  1  0.56186000  0.21968000  0.72308000  1.0
  C  C695  1  0.59548000  0.23260000  0.72721000  1.0
  C  C696  1  0.54423000  0.20456000  0.69001000  1.0
  C  C697  1  0.22019000  0.21903000  0.49097000  1.0
  C  C698  1  0.20539000  0.24055000  0.48186000  1.0
  C  C699  1  0.25508000  0.20981000  0.48398000  1.0
  C  C700  1  0.25998000  0.24330000  0.45802000  1.0
  C  C701  1  0.27462000  0.22166000  0.46690000  1.0
  C  C702  1  0.27218000  0.18971000  0.49704000  1.0
  C  C703  1  0.09805000  0.19419000  0.75227000  1.0
  C  C704  1  0.10905000  0.22680000  0.77213000  1.0
  C  C705  1  0.06431000  0.18739000  0.73933000  1.0
  C  C706  1  0.04300000  0.21351000  0.74390000  1.0
  C  C707  1  0.76947000  0.15893000  0.49153000  1.0
  C  C708  1  0.54767000  0.16801000  0.66918000  1.0
  C  C709  1  0.25929000  0.15499000  0.48140000  1.0
  C  C710  1  0.04928000  0.15333000  0.72513000  1.0
  C  C711  1  0.80689000  0.11574000  0.55519000  1.0
  C  C712  1  0.58620000  0.09745000  0.57665000  1.0
  C  C713  1  0.95118000  0.09375000  0.61780000  1.0
  C  C714  1  0.60705000  0.08898000  0.54724000  1.0
  C  C715  1  0.59532000  0.09626000  0.52327000  1.0
  C  C716  1  0.61545000  0.08799000  0.49544000  1.0
  C  C717  1  0.91668000  0.10072000  0.60896000  1.0
  C  C718  1  0.85514000  0.08819000  0.59968000  1.0
  C  C719  1  0.84992000  0.11517000  0.59503000  1.0
  C  C720  1  0.91164000  0.12711000  0.60322000  1.0
  C  C721  1  0.87852000  0.13441000  0.59656000  1.0
  C  C722  1  0.81376000  0.12424000  0.59005000  1.0
  C  C723  1  0.17944000  0.08640000  0.46421000  1.0
  C  C724  1  0.29923000  0.09659000  0.53079000  1.0
  C  C725  1  0.08717000  0.09566000  0.58839000  1.0
  C  C726  1  0.05481000  0.13244000  0.68886000  1.0
  C  C727  1  0.10372000  0.09465000  0.55962000  1.0
  C  C728  1  0.13108000  0.08542000  0.49990000  1.0
  C  C729  1  0.08892000  0.11081000  0.54423000  1.0
  C  C730  1  0.10273000  0.10649000  0.51477000  1.0
  C  C731  1  0.42211000  0.08673000  0.56766000  1.0
  C  C732  1  0.35004000  0.09209000  0.56171000  1.0
  C  C733  1  0.40606000  0.11780000  0.58209000  1.0
  C  C734  1  0.37041000  0.12044000  0.57905000  1.0
  C  C735  1  0.31123000  0.09484000  0.56028000  1.0
  C  C736  1  0.45917000  0.08381000  0.57385000  1.0
  C  C737  1  0.70162000  0.07774000  0.46508000  1.0
  C  C738  1  0.80710000  0.05931000  0.44338000  1.0
  C  C739  1  0.53808000  0.06282000  0.63305000  1.0
  C  C740  1  0.65875000  0.06424000  0.51473000  1.0
  C  C741  1  0.63908000  0.07318000  0.54285000  1.0
  C  C742  1  0.64723000  0.07173000  0.49086000  1.0
  C  C743  1  0.66759000  0.06042000  0.45965000  1.0
  C  C744  1  0.88808000  0.08119000  0.60682000  1.0
  C  C745  1  0.83557000  0.03470000  0.42830000  1.0
  C  C746  1  0.27782000  0.05114000  0.42145000  1.0
  C  C747  1  0.14611000  0.06965000  0.51558000  1.0
  C  C748  1  0.13294000  0.07467000  0.54541000  1.0
  C  C749  1  0.14272000  0.07700000  0.46586000  1.0
  C  C750  1  0.36614000  0.06113000  0.54604000  1.0
  C  C751  1  0.40181000  0.05845000  0.54906000  1.0
  C  C752  1  0.04091000  0.03301000  0.61685000  1.0
  C  C753  1  0.81298000  0.99070000  0.43985000  1.0
  C  C754  1  0.82257000  0.00028000  0.41692000  1.0
  C  C755  1  0.52989000  0.03183000  0.63264000  1.0
  C  C756  1  0.49812000  0.01576000  0.62009000  1.0
  C  C757  1  0.55456000  0.01700000  0.64309000  1.0
  C  C758  1  0.54756000  0.98693000  0.64126000  1.0
  C  C759  1  0.29255000  0.99108000  0.39442000  1.0
  C  C760  1  0.30315000  0.02475000  0.40054000  1.0
  C  C761  1  0.02959000  0.00033000  0.61052000  1.0
  C  C762  1  0.99514000  0.99015000  0.60169000  1.0
  C  C763  1  0.51569000  0.97113000  0.62912000  1.0
  C  C764  1  0.82216000  0.97676000  0.38328000  1.0
  C  C765  1  0.49106000  0.98575000  0.61846000  1.0
  C  C766  1  0.28918000  0.98470000  0.42060000  1.0
  C  C767  1  0.05246000  0.97996000  0.61556000  1.0
  O  O768  1  0.79410000  0.67526000  0.14926000  1.0
  O  O769  1  0.83192000  0.63896000  0.08370000  1.0
  O  O770  1  0.86361000  0.61053000  0.10216000  1.0
  O  O771  1  0.82042000  0.64639000  0.17018000  1.0
  O  O772  1  0.76475000  0.61227000  0.09404000  1.0
  O  O773  1  0.90748000  0.60813000  0.14941000  1.0
  O  O774  1  0.96163000  0.79624000  0.54235000  1.0
  O  O775  1  0.47250000  0.90149000  0.58388000  1.0
  O  O776  1  0.53023000  0.89160000  0.58240000  1.0
  O  O777  1  0.51481000  0.81576000  0.55160000  1.0
  O  O778  1  0.96241000  0.81774000  0.49202000  1.0
  O  O779  1  0.52240000  0.84405000  0.50307000  1.0
  O  O780  1  0.58179000  0.84166000  0.54163000  1.0
  O  O781  1  0.59030000  0.87528000  0.52036000  1.0
  O  O782  1  0.47418000  0.65989000  0.55773000  1.0
  O  O783  1  0.94194000  0.64384000  0.53403000  1.0
  O  O784  1  0.50877000  0.62080000  0.48950000  1.0
  O  O785  1  0.96429000  0.61102000  0.46126000  1.0
  O  O786  1  0.89135000  0.61770000  0.48103000  1.0
  O  O787  1  0.80375000  0.80502000  0.31762000  1.0
  O  O788  1  0.82010000  0.87758000  0.35741000  1.0
  O  O789  1  0.79178000  0.88785000  0.40409000  1.0
  O  O790  1  0.76746000  0.81173000  0.35865000  1.0
  O  O791  1  0.86463000  0.82948000  0.36446000  1.0
  O  O792  1  0.83299000  0.83074000  0.40598000  1.0
  O  O793  1  0.76056000  0.84594000  0.43016000  1.0
  O  O794  1  0.72649000  0.88620000  0.43176000  1.0
  O  O795  1  0.29654000  0.67138000  0.14768000  1.0
  O  O796  1  0.33109000  0.63683000  0.08015000  1.0
  O  O797  1  0.36216000  0.60423000  0.09393000  1.0
  O  O798  1  0.32252000  0.63849000  0.16401000  1.0
  O  O799  1  0.26319000  0.61188000  0.09124000  1.0
  O  O800  1  0.45795000  0.82875000  0.55282000  1.0
  O  O801  1  0.96385000  0.86780000  0.56460000  1.0
  O  O802  1  0.02252000  0.86687000  0.56726000  1.0
  O  O803  1  0.02001000  0.79116000  0.54333000  1.0
  O  O804  1  0.46575000  0.85892000  0.50932000  1.0
  O  O805  1  0.02093000  0.81285000  0.48887000  1.0
  O  O806  1  0.08118000  0.82370000  0.53249000  1.0
  O  O807  1  0.08267000  0.85759000  0.51096000  1.0
  O  O808  1  0.99471000  0.63378000  0.54959000  1.0
  O  O809  1  0.42445000  0.66202000  0.53215000  1.0
  O  O810  1  0.01788000  0.60310000  0.47735000  1.0
  O  O811  1  0.45832000  0.62138000  0.46384000  1.0
  O  O812  1  0.38288000  0.62408000  0.47276000  1.0
  O  O813  1  0.30541000  0.79683000  0.31679000  1.0
  O  O814  1  0.30820000  0.87114000  0.34943000  1.0
  O  O815  1  0.28016000  0.88293000  0.39670000  1.0
  O  O816  1  0.26914000  0.80355000  0.35782000  1.0
  O  O817  1  0.36155000  0.83585000  0.36658000  1.0
  O  O818  1  0.33102000  0.83777000  0.40898000  1.0
  O  O819  1  0.25703000  0.84354000  0.42840000  1.0
  O  O820  1  0.21570000  0.87342000  0.42060000  1.0
  O  O821  1  0.89605000  0.48155000  0.66222000  1.0
  O  O822  1  0.89792000  0.49935000  0.60707000  1.0
  O  O823  1  0.91278000  0.44704000  0.56875000  1.0
  O  O824  1  0.91263000  0.42900000  0.62576000  1.0
  O  O825  1  0.83136000  0.47418000  0.62049000  1.0
  O  O826  1  0.84521000  0.42082000  0.58419000  1.0
  O  O827  1  0.46067000  0.38843000  0.56629000  1.0
  O  O828  1  0.79405000  0.57974000  0.10900000  1.0
  O  O829  1  0.85636000  0.58259000  0.14605000  1.0
  O  O830  1  0.62504000  0.44556000  0.28557000  1.0
  O  O831  1  0.62439000  0.41600000  0.33004000  1.0
  O  O832  1  0.67428000  0.44164000  0.35562000  1.0
  O  O833  1  0.67405000  0.47450000  0.30873000  1.0
  O  O834  1  0.58975000  0.48027000  0.35020000  1.0
  O  O835  1  0.63695000  0.51078000  0.37694000  1.0
  O  O836  1  0.71315000  0.50254000  0.36976000  1.0
  O  O837  1  0.69967000  0.51385000  0.42146000  1.0
  O  O838  1  0.98522000  0.55782000  0.50101000  1.0
  O  O839  1  0.93160000  0.56767000  0.48681000  1.0
  O  O840  1  0.88142000  0.56492000  0.44040000  1.0
  O  O841  1  0.91024000  0.52376000  0.83496000  1.0
  O  O842  1  0.90309000  0.55316000  0.90777000  1.0
  O  O843  1  0.87697000  0.50852000  0.90514000  1.0
  O  O844  1  0.88016000  0.47782000  0.82383000  1.0
  O  O845  1  0.96283000  0.50996000  0.87242000  1.0
  O  O846  1  0.93680000  0.46162000  0.85984000  1.0
  O  O847  1  0.86636000  0.43657000  0.85404000  1.0
  O  O848  1  0.87513000  0.44662000  0.90613000  1.0
  O  O849  1  0.67335000  0.46950000  0.13806000  1.0
  O  O850  1  0.65350000  0.40416000  0.07908000  1.0
  O  O851  1  0.59680000  0.41830000  0.08109000  1.0
  O  O852  1  0.61737000  0.48684000  0.14521000  1.0
  O  O853  1  0.67389000  0.46041000  0.06944000  1.0
  O  O854  1  0.61866000  0.47894000  0.07374000  1.0
  O  O855  1  0.55391000  0.47852000  0.10675000  1.0
  O  O856  1  0.57145000  0.53175000  0.13445000  1.0
  O  O857  1  0.38813000  0.47300000  0.65886000  1.0
  O  O858  1  0.39121000  0.50473000  0.61278000  1.0
  O  O859  1  0.41612000  0.45702000  0.57284000  1.0
  O  O860  1  0.40509000  0.42349000  0.61544000  1.0
  O  O861  1  0.32453000  0.47001000  0.61610000  1.0
  O  O862  1  0.34688000  0.42549000  0.57013000  1.0
  O  O863  1  0.96322000  0.39272000  0.56606000  1.0
  O  O864  1  0.29159000  0.57551000  0.10155000  1.0
  O  O865  1  0.35461000  0.57250000  0.13470000  1.0
  O  O866  1  0.40759000  0.59449000  0.13655000  1.0
  O  O867  1  0.12716000  0.43644000  0.27130000  1.0
  O  O868  1  0.12325000  0.40777000  0.31616000  1.0
  O  O869  1  0.17351000  0.43183000  0.34227000  1.0
  O  O870  1  0.17626000  0.46483000  0.29516000  1.0
  O  O871  1  0.09108000  0.47240000  0.33506000  1.0
  O  O872  1  0.13840000  0.50174000  0.36297000  1.0
  O  O873  1  0.21462000  0.49235000  0.35695000  1.0
  O  O874  1  0.19581000  0.51218000  0.40935000  1.0
  O  O875  1  0.47213000  0.58212000  0.51890000  1.0
  O  O876  1  0.42161000  0.58434000  0.49452000  1.0
  O  O877  1  0.37698000  0.56842000  0.44086000  1.0
  O  O878  1  0.40960000  0.51413000  0.82719000  1.0
  O  O879  1  0.39788000  0.54672000  0.90024000  1.0
  O  O880  1  0.37361000  0.50222000  0.89939000  1.0
  O  O881  1  0.37959000  0.46871000  0.81784000  1.0
  O  O882  1  0.45975000  0.50491000  0.87006000  1.0
  O  O883  1  0.43516000  0.45623000  0.85834000  1.0
  O  O884  1  0.36512000  0.42966000  0.85024000  1.0
  O  O885  1  0.37452000  0.44132000  0.90277000  1.0
  O  O886  1  0.17049000  0.46334000  0.12435000  1.0
  O  O887  1  0.14264000  0.40218000  0.06491000  1.0
  O  O888  1  0.08739000  0.42150000  0.07288000  1.0
  O  O889  1  0.11652000  0.48566000  0.13770000  1.0
  O  O890  1  0.16573000  0.45950000  0.05815000  1.0
  O  O891  1  0.11241000  0.48323000  0.06887000  1.0
  O  O892  1  0.05009000  0.48480000  0.10606000  1.0
  O  O893  1  0.07149000  0.53671000  0.13354000  1.0
  O  O894  1  0.40800000  0.38575000  0.54346000  1.0
  O  O895  1  0.90628000  0.37965000  0.55556000  1.0
  O  O896  1  0.57046000  0.30898000  0.83813000  1.0
  O  O897  1  0.57872000  0.34749000  0.91076000  1.0
  O  O898  1  0.63716000  0.34265000  0.90574000  1.0
  O  O899  1  0.62803000  0.30321000  0.82662000  1.0
  O  O900  1  0.57315000  0.38270000  0.87265000  1.0
  O  O901  1  0.63110000  0.38086000  0.86473000  1.0
  O  O902  1  0.69150000  0.34351000  0.86072000  1.0
  O  O903  1  0.69076000  0.39223000  0.90862000  1.0
  O  O904  1  0.73514000  0.29843000  0.46016000  1.0
  O  O905  1  0.71347000  0.32503000  0.41584000  1.0
  O  O906  1  0.65759000  0.31153000  0.41892000  1.0
  O  O907  1  0.71783000  0.37097000  0.48973000  1.0
  O  O908  1  0.66267000  0.35976000  0.49755000  1.0
  O  O909  1  0.60990000  0.31067000  0.46801000  1.0
  O  O910  1  0.59778000  0.35283000  0.45911000  1.0
  O  O911  1  0.06791000  0.30615000  0.82147000  1.0
  O  O912  1  0.07228000  0.34673000  0.89481000  1.0
  O  O913  1  0.13090000  0.34366000  0.89404000  1.0
  O  O914  1  0.07130000  0.37924000  0.85402000  1.0
  O  O915  1  0.12929000  0.37477000  0.84611000  1.0
  O  O916  1  0.18836000  0.33941000  0.84996000  1.0
  O  O917  1  0.18527000  0.39000000  0.89545000  1.0
  O  O918  1  0.20548000  0.31592000  0.40260000  1.0
  O  O919  1  0.14956000  0.30752000  0.41176000  1.0
  O  O920  1  0.21642000  0.36616000  0.47397000  1.0
  O  O921  1  0.16138000  0.36100000  0.48754000  1.0
  O  O922  1  0.10736000  0.31200000  0.46700000  1.0
  O  O923  1  0.08948000  0.35037000  0.45435000  1.0
  O  O924  1  0.68052000  0.28457000  0.46661000  1.0
  O  O925  1  0.12588000  0.29668000  0.81650000  1.0
  O  O926  1  0.23169000  0.29429000  0.44941000  1.0
  O  O927  1  0.17763000  0.28553000  0.46237000  1.0
  O  O928  1  0.76323000  0.14103000  0.45999000  1.0
  O  O929  1  0.77127000  0.14504000  0.50994000  1.0
  O  O930  1  0.57513000  0.15253000  0.67059000  1.0
  O  O931  1  0.52440000  0.15223000  0.64593000  1.0
  O  O932  1  0.24674000  0.14003000  0.45149000  1.0
  O  O933  1  0.26216000  0.13915000  0.49790000  1.0
  O  O934  1  0.72106000  0.08432000  0.49085000  1.0
  O  O935  1  0.77568000  0.10650000  0.54266000  1.0
  O  O936  1  0.83051000  0.12143000  0.53851000  1.0
  O  O937  1  0.60165000  0.10123000  0.60314000  1.0
  O  O938  1  0.55226000  0.10047000  0.57620000  1.0
  O  O939  1  0.97949000  0.10629000  0.61278000  1.0
  O  O940  1  0.18831000  0.09122000  0.44006000  1.0
  O  O941  1  0.20307000  0.08732000  0.48500000  1.0
  O  O942  1  0.26602000  0.09409000  0.52386000  1.0
  O  O943  1  0.32131000  0.10125000  0.51219000  1.0
  O  O944  1  0.08315000  0.11514000  0.67812000  1.0
  O  O945  1  0.02874000  0.12683000  0.66845000  1.0
  O  O946  1  0.10513000  0.08757000  0.60685000  1.0
  O  O947  1  0.05354000  0.10106000  0.59340000  1.0
  O  O948  1  0.47697000  0.11027000  0.59383000  1.0
  O  O949  1  0.71333000  0.08313000  0.44205000  1.0
  O  O950  1  0.79016000  0.06911000  0.42569000  1.0
  O  O951  1  0.79981000  0.07150000  0.47477000  1.0
  O  O952  1  0.56729000  0.07803000  0.64553000  1.0
  O  O953  1  0.51702000  0.07398000  0.61871000  1.0
  O  O954  1  0.95371000  0.07478000  0.63089000  1.0
  O  O955  1  0.25915000  0.06510000  0.40858000  1.0
  O  O956  1  0.27690000  0.06237000  0.45337000  1.0
  O  O957  1  0.07193000  0.04365000  0.62820000  1.0
  O  O958  1  0.01903000  0.05250000  0.61315000  1.0
  O  O959  1  0.47350000  0.05468000  0.56231000  1.0
