# generated using pymatgen
data_In3H12(C12O11)2
_symmetry_space_group_name_H-M   'P 1'
_cell_length_a   22.20480000
_cell_length_b   35.89190000
_cell_length_c   35.89190000
_cell_angle_alpha   120.00000000
_cell_angle_beta   90.00000000
_cell_angle_gamma   90.00000000
_symmetry_Int_Tables_number   1
_chemical_formula_structural   In3H12(C12O11)2
_chemical_formula_sum   'In36 H144 C288 O264'
_cell_volume   24772.53186131
_cell_formula_units_Z   12
loop_
 _symmetry_equiv_pos_site_id
 _symmetry_equiv_pos_as_xyz
  1  'x, y, z'
loop_
 _atom_site_type_symbol
 _atom_site_label
 _atom_site_symmetry_multiplicity
 _atom_site_fract_x
 _atom_site_fract_y
 _atom_site_fract_z
 _atom_site_occupancy
  C  C0  1  0.58274000  0.56049000  0.94346000  1.0
  C  C1  1  0.72048000  0.63799000  0.96915000  1.0
  C  C2  1  0.50528000  0.64115000  0.87740000  1.0
  C  C3  1  0.59530000  0.75776000  0.05147000  1.0
  C  C4  1  0.46978000  0.69690000  0.99925000  1.0
  C  C5  1  0.67038000  0.68134000  0.88175000  1.0
  C  C6  1  0.42080000  0.96028000  0.39193000  1.0
  C  C7  1  0.53692000  0.99116000  0.35234000  1.0
  C  C8  1  0.33604000  0.88529000  0.24236000  1.0
  C  C9  1  0.42614000  0.05741000  0.29188000  1.0
  C  C10  1  0.28706000  0.99349000  0.29882000  1.0
  C  C11  1  0.50484000  0.89765000  0.20768000  1.0
  C  C12  1  0.25972000  0.39313000  0.45251000  1.0
  C  C13  1  0.37250000  0.34058000  0.36565000  1.0
  C  C14  1  0.19088000  0.22353000  0.35655000  1.0
  C  C15  1  0.26230000  0.30921000  0.25748000  1.0
  C  C16  1  0.12448000  0.30487000  0.32034000  1.0
  C  C17  1  0.35006000  0.22026000  0.32505000  1.0
  C  C18  1  0.09798000  0.44955000  0.05809000  1.0
  C  C19  1  0.21702000  0.36698000  0.02658000  1.0
  C  C20  1  0.01828000  0.35997000  0.12877000  1.0
  C  C21  1  0.10290000  0.25339000  0.94942000  1.0
  C  C22  1  0.97122000  0.31832000  0.01581000  1.0
  C  C23  1  0.17950000  0.32791000  0.11742000  1.0
  C  C24  1  0.93610000  0.06127000  0.61183000  1.0
  C  C25  1  0.06102000  0.04271000  0.66531000  1.0
  C  C26  1  0.84012000  0.12038000  0.75918000  1.0
  C  C27  1  0.93748000  0.95052000  0.69932000  1.0
  C  C28  1  0.81352000  0.00740000  0.68977000  1.0
  C  C29  1  0.01702000  0.11598000  0.79150000  1.0
  C  C30  1  0.75712000  0.61099000  0.54755000  1.0
  C  C31  1  0.88728000  0.68191000  0.63664000  1.0
  C  C32  1  0.67602000  0.76568000  0.62569000  1.0
  C  C33  1  0.75828000  0.70561000  0.74539000  1.0
  C  C34  1  0.63810000  0.69176000  0.68459000  1.0
  C  C35  1  0.84414000  0.78980000  0.66784000  1.0
  C  C36  1  0.58456000  0.39935000  0.94452000  1.0
  C  C37  1  0.46656000  0.34185000  0.97569000  1.0
  C  C38  1  0.65166000  0.23060000  0.86511000  1.0
  C  C39  1  0.57990000  0.30937000  0.05066000  1.0
  C  C40  1  0.71502000  0.30974000  0.98917000  1.0
  C  C41  1  0.49304000  0.22309000  0.89156000  1.0
  C  C42  1  0.43510000  0.96388000  0.55543000  1.0
  C  C43  1  0.31000000  0.99684000  0.63252000  1.0
  C  C44  1  0.50206000  0.88595000  0.63553000  1.0
  C  C45  1  0.42082000  0.06424000  0.75168000  1.0
  C  C46  1  0.55580000  0.98982000  0.67680000  1.0
  C  C47  1  0.35280000  0.89275000  0.67083000  1.0
  C  C48  1  0.26468000  0.55488000  0.61220000  1.0
  C  C49  1  0.13110000  0.64768000  0.66038000  1.0
  C  C50  1  0.32050000  0.63963000  0.76716000  1.0
  C  C51  1  0.28486000  0.74940000  0.69347000  1.0
  C  C52  1  0.38346000  0.67452000  0.69940000  1.0
  C  C53  1  0.17086000  0.68002000  0.79209000  1.0
  C  C54  1  0.09630000  0.61258000  0.06164000  1.0
  C  C55  1  0.96746000  0.66274000  0.02350000  1.0
  C  C56  1  0.14728000  0.77573000  0.14085000  1.0
  C  C57  1  0.10104000  0.70488000  0.95675000  1.0
  C  C58  1  0.21526000  0.70940000  0.03358000  1.0
  C  C59  1  0.99074000  0.78862000  0.11876000  1.0
  C  C60  1  0.92526000  0.06080000  0.45070000  1.0
  C  C61  1  0.78550000  0.03718000  0.38490000  1.0
  C  C62  1  0.98894000  0.11913000  0.35321000  1.0
  C  C63  1  0.89982000  0.94627000  0.25441000  1.0
  C  C64  1  0.02776000  0.01180000  0.31580000  1.0
  C  C65  1  0.81600000  0.11336000  0.32962000  1.0
  C  C66  1  0.75330000  0.44599000  0.38875000  1.0
  C  C67  1  0.62022000  0.37165000  0.34366000  1.0
  C  C68  1  0.82748000  0.35626000  0.23544000  1.0
  C  C69  1  0.73998000  0.24914000  0.30291000  1.0
  C  C70  1  0.86772000  0.31519000  0.30269000  1.0
  C  C71  1  0.65906000  0.32375000  0.20813000  1.0
  C  C72  1  0.45314000  0.63137000  0.84856000  1.0
  C  C73  1  0.39836000  0.65305000  0.86510000  1.0
  C  C74  1  0.46054000  0.60602000  0.80383000  1.0
  C  C75  1  0.36282000  0.62974000  0.79261000  1.0
  C  C76  1  0.41630000  0.60521000  0.77540000  1.0
  C  C77  1  0.35362000  0.65168000  0.83724000  1.0
  C  C78  1  0.18962000  0.80215000  0.17579000  1.0
  C  C79  1  0.18196000  0.84704000  0.19913000  1.0
  C  C80  1  0.24250000  0.78403000  0.18126000  1.0
  C  C81  1  0.28412000  0.85580000  0.22674000  1.0
  C  C82  1  0.29028000  0.81029000  0.20638000  1.0
  C  C83  1  0.22894000  0.87337000  0.22419000  1.0
  C  C84  1  0.04312000  0.14448000  0.35531000  1.0
  C  C85  1  0.06950000  0.13913000  0.31713000  1.0
  C  C86  1  0.06900000  0.17436000  0.39500000  1.0
  C  C87  1  0.14344000  0.19513000  0.35846000  1.0
  C  C88  1  0.11946000  0.19915000  0.39708000  1.0
  C  C89  1  0.11870000  0.16385000  0.31906000  1.0
  C  C90  1  0.88032000  0.36349000  0.21471000  1.0
  C  C91  1  0.93034000  0.33588000  0.20342000  1.0
  C  C92  1  0.87830000  0.39404000  0.20114000  1.0
  C  C93  1  0.97230000  0.36587000  0.16127000  1.0
  C  C94  1  0.92282000  0.39498000  0.17362000  1.0
  C  C95  1  0.97598000  0.33790000  0.17791000  1.0
  C  C96  1  0.69346000  0.20186000  0.83050000  1.0
  C  C97  1  0.73910000  0.21773000  0.81486000  1.0
  C  C98  1  0.69148000  0.15765000  0.81631000  1.0
  C  C99  1  0.78530000  0.14652000  0.77739000  1.0
  C  C100  1  0.73700000  0.12979000  0.78991000  1.0
  C  C101  1  0.78450000  0.18992000  0.78813000  1.0
  C  C102  1  0.54208000  0.84923000  0.62446000  1.0
  C  C103  1  0.59436000  0.84143000  0.59951000  1.0
  C  C104  1  0.52970000  0.82358000  0.64280000  1.0
  C  C105  1  0.62534000  0.78687000  0.61723000  1.0
  C  C106  1  0.56976000  0.79187000  0.63865000  1.0
  C  C107  1  0.63586000  0.81024000  0.59600000  1.0
  C  C108  1  0.57744000  0.51806000  0.94133000  1.0
  C  C109  1  0.55226000  0.51459000  0.97562000  1.0
  C  C110  1  0.60338000  0.48118000  0.90673000  1.0
  C  C111  1  0.58354000  0.43938000  0.94205000  1.0
  C  C112  1  0.60774000  0.44223000  0.90690000  1.0
  C  C113  1  0.55580000  0.47579000  0.97579000  1.0
  C  C114  1  0.42212000  0.95988000  0.43329000  1.0
  C  C115  1  0.39768000  0.99411000  0.47139000  1.0
  C  C116  1  0.45166000  0.92637000  0.43564000  1.0
  C  C117  1  0.43424000  0.96183000  0.51308000  1.0
  C  C118  1  0.45882000  0.92712000  0.47492000  1.0
  C  C119  1  0.40418000  0.99490000  0.51050000  1.0
  C  C120  1  0.26550000  0.43245000  0.49500000  1.0
  C  C121  1  0.23820000  0.43654000  0.53224000  1.0
  C  C122  1  0.29888000  0.46695000  0.49795000  1.0
  C  C123  1  0.27154000  0.51147000  0.57350000  1.0
  C  C124  1  0.30310000  0.50619000  0.53690000  1.0
  C  C125  1  0.24086000  0.47594000  0.57102000  1.0
  C  C126  1  0.10108000  0.57259000  0.06420000  1.0
  C  C127  1  0.06846000  0.56690000  0.09484000  1.0
  C  C128  1  0.13566000  0.53818000  0.03340000  1.0
  C  C129  1  0.10226000  0.49232000  0.06150000  1.0
  C  C130  1  0.13790000  0.49874000  0.03234000  1.0
  C  C131  1  0.06944000  0.52708000  0.09336000  1.0
  C  C132  1  0.93350000  0.06450000  0.49350000  1.0
  C  C133  1  0.90574000  0.09746000  0.53097000  1.0
  C  C134  1  0.96546000  0.03219000  0.49625000  1.0
  C  C135  1  0.93848000  0.06343000  0.57179000  1.0
  C  C136  1  0.96950000  0.03174000  0.53487000  1.0
  C  C137  1  0.90864000  0.09680000  0.56969000  1.0
  C  C138  1  0.75298000  0.56945000  0.50606000  1.0
  C  C139  1  0.72962000  0.53205000  0.50443000  1.0
  C  C140  1  0.77658000  0.56601000  0.46801000  1.0
  C  C141  1  0.75636000  0.48881000  0.42840000  1.0
  C  C142  1  0.77938000  0.52629000  0.42949000  1.0
  C  C143  1  0.73184000  0.49254000  0.46619000  1.0
  C  C144  1  0.40560000  0.70350000  0.01242000  1.0
  C  C145  1  0.37078000  0.73665000  0.01289000  1.0
  C  C146  1  0.37848000  0.67621000  0.02516000  1.0
  C  C147  1  0.28160000  0.71051000  0.03228000  1.0
  C  C148  1  0.31762000  0.68007000  0.03624000  1.0
  C  C149  1  0.30926000  0.73951000  0.02216000  1.0
  C  C150  1  0.09422000  0.00678000  0.31142000  1.0
  C  C151  1  0.12688000  0.98596000  0.32955000  1.0
  C  C152  1  0.12584000  0.02348000  0.28908000  1.0
  C  C153  1  0.22112000  0.99953000  0.30347000  1.0
  C  C154  1  0.18866000  0.02105000  0.28569000  1.0
  C  C155  1  0.18958000  0.98272000  0.32565000  1.0
  C  C156  1  0.05856000  0.30681000  0.31545000  1.0
  C  C157  1  0.02294000  0.26934000  0.29422000  1.0
  C  C158  1  0.03088000  0.34719000  0.33130000  1.0
  C  C159  1  0.93356000  0.31313000  0.30552000  1.0
  C  C160  1  0.96934000  0.35084000  0.32586000  1.0
  C  C161  1  0.96106000  0.27274000  0.28928000  1.0
  C  C162  1  0.78048000  0.31169000  0.99685000  1.0
  C  C163  1  0.80926000  0.35101000  0.02470000  1.0
  C  C164  1  0.81490000  0.27385000  0.97601000  1.0
  C  C165  1  0.90596000  0.31461000  0.00895000  1.0
  C  C166  1  0.87738000  0.27481000  0.98104000  1.0
  C  C167  1  0.87146000  0.35219000  0.03029000  1.0
  C  C168  1  0.62232000  0.99081000  0.67652000  1.0
  C  C169  1  0.65408000  0.00973000  0.65612000  1.0
  C  C170  1  0.65474000  0.97422000  0.69863000  1.0
  C  C171  1  0.74876000  0.99800000  0.68279000  1.0
  C  C172  1  0.71748000  0.97683000  0.70137000  1.0
  C  C173  1  0.71672000  0.01299000  0.65925000  1.0
  C  C174  1  0.57422000  0.68540000  0.69142000  1.0
  C  C175  1  0.54074000  0.71821000  0.72532000  1.0
  C  C176  1  0.54558000  0.64641000  0.66300000  1.0
  C  C177  1  0.44982000  0.67478000  0.69880000  1.0
  C  C178  1  0.48416000  0.64034000  0.66672000  1.0
  C  C179  1  0.47934000  0.71263000  0.72878000  1.0
  C  C180  1  0.70564000  0.69159000  0.85271000  1.0
  C  C181  1  0.74072000  0.65979000  0.81901000  1.0
  C  C182  1  0.69978000  0.73194000  0.85562000  1.0
  C  C183  1  0.75146000  0.70542000  0.78673000  1.0
  C  C184  1  0.72364000  0.73964000  0.82382000  1.0
  C  C185  1  0.76266000  0.66666667  0.78639667  1.0
  C  C186  1  0.58880000  0.79852000  0.09318000  1.0
  C  C187  1  0.59444000  0.79894000  0.13251000  1.0
  C  C188  1  0.56808000  0.83591000  0.09395000  1.0
  C  C189  1  0.54426000  0.86889000  0.17044000  1.0
  C  C190  1  0.54748000  0.87149000  0.13220000  1.0
  C  C191  1  0.57200000  0.83360000  0.17043000  1.0
  C  C192  1  0.38868000  0.18184000  0.31176000  1.0
  C  C193  1  0.42300000  0.17709000  0.34221000  1.0
  C  C194  1  0.38304000  0.14631000  0.27000000  1.0
  C  C195  1  0.42888000  0.09955000  0.29316000  1.0
  C  C196  1  0.40414000  0.10551000  0.25999000  1.0
  C  C197  1  0.44308000  0.13632000  0.33265000  1.0
  C  C198  1  0.25866000  0.31030000  0.21682000  1.0
  C  C199  1  0.26618000  0.34909000  0.21657000  1.0
  C  C200  1  0.23544000  0.27439000  0.17990000  1.0
  C  C201  1  0.21424000  0.31860000  0.14734000  1.0
  C  C202  1  0.21154000  0.27837000  0.14591000  1.0
  C  C203  1  0.24480000  0.35283000  0.18193000  1.0
  C  C204  1  0.09920000  0.21298000  0.90736000  1.0
  C  C205  1  0.10592000  0.21358000  0.86867000  1.0
  C  C206  1  0.07892000  0.17498000  0.90549000  1.0
  C  C207  1  0.05680000  0.14340000  0.82896000  1.0
  C  C208  1  0.05928000  0.13975000  0.86660000  1.0
  C  C209  1  0.08478000  0.17919000  0.83010000  1.0
  C  C210  1  0.88230000  0.82840000  0.68096000  1.0
  C  C211  1  0.87630000  0.86565000  0.72172000  1.0
  C  C212  1  0.91850000  0.83036000  0.64986000  1.0
  C  C213  1  0.93002000  0.90780000  0.69592000  1.0
  C  C214  1  0.94268000  0.86969000  0.65698000  1.0
  C  C215  1  0.90004000  0.90491000  0.72890000  1.0
  C  C216  1  0.41988000  0.10571000  0.79283000  1.0
  C  C217  1  0.40810000  0.14449000  0.79332000  1.0
  C  C218  1  0.44004000  0.10758000  0.83085000  1.0
  C  C219  1  0.45380000  0.18522000  0.86457000  1.0
  C  C220  1  0.45552000  0.14696000  0.86714000  1.0
  C  C221  1  0.42496000  0.18369000  0.82888000  1.0
  C  C222  1  0.33178000  0.85721000  0.67724000  1.0
  C  C223  1  0.29426000  0.86348000  0.71158000  1.0
  C  C224  1  0.35526000  0.81614000  0.64989000  1.0
  C  C225  1  0.30332000  0.78720000  0.68967000  1.0
  C  C226  1  0.34418000  0.78198000  0.65691000  1.0
  C  C227  1  0.27950000  0.82842000  0.71724000  1.0
  C  C228  1  0.14142000  0.69137000  0.83357000  1.0
  C  C229  1  0.10402000  0.66166000  0.83734000  1.0
  C  C230  1  0.15824000  0.72932000  0.87111000  1.0
  C  C231  1  0.10922000  0.70452000  0.91565000  1.0
  C  C232  1  0.14408000  0.73590000  0.91208000  1.0
  C  C233  1  0.08790000  0.66861000  0.87800000  1.0
  C  C234  1  0.95216000  0.82612000  0.14682000  1.0
  C  C235  1  0.95174000  0.86364000  0.14348000  1.0
  C  C236  1  0.92258000  0.82689000  0.18187000  1.0
  C  C237  1  0.90620000  0.90392000  0.21475000  1.0
  C  C238  1  0.89966000  0.86551000  0.21598000  1.0
  C  C239  1  0.92878000  0.90209000  0.17728000  1.0
  C  C240  1  0.74342000  0.20925000  0.30549000  1.0
  C  C241  1  0.76704000  0.17084000  0.27135000  1.0
  C  C242  1  0.73190000  0.21146000  0.34503000  1.0
  C  C243  1  0.77898000  0.14157000  0.31944000  1.0
  C  C244  1  0.74798000  0.17781000  0.35212000  1.0
  C  C245  1  0.78430000  0.13732000  0.27843000  1.0
  C  C246  1  0.58236000  0.30975000  0.09221000  1.0
  C  C247  1  0.57618000  0.34855000  0.13149000  1.0
  C  C248  1  0.60064000  0.27270000  0.09311000  1.0
  C  C249  1  0.62152000  0.31551000  0.17012000  1.0
  C  C250  1  0.61864000  0.27484000  0.13167000  1.0
  C  C251  1  0.59574000  0.35120000  0.16975000  1.0
  C  C252  1  0.78436000  0.64062000  0.98060000  1.0
  C  C253  1  0.80178000  0.64015000  0.01805000  1.0
  C  C254  1  0.82786000  0.64670000  0.95586000  1.0
  C  C255  1  0.90516000  0.65497000  0.00751000  1.0
  C  C256  1  0.88780000  0.65518000  0.96947000  1.0
  C  C257  1  0.86168000  0.64720000  0.03114000  1.0
  C  C258  1  0.59864000  0.00601000  0.36777000  1.0
  C  C259  1  0.61846000  0.04718000  0.37727000  1.0
  C  C260  1  0.63946000  0.97779000  0.37076000  1.0
  C  C261  1  0.72082000  0.02872000  0.38610000  1.0
  C  C262  1  0.69988000  0.98906000  0.38097000  1.0
  C  C263  1  0.67916000  0.05810000  0.38611000  1.0
  C  C264  1  0.43562000  0.34989000  0.36066000  1.0
  C  C265  1  0.45380000  0.35414000  0.32530000  1.0
  C  C266  1  0.47786000  0.35628000  0.39234000  1.0
  C  C267  1  0.55626000  0.36906000  0.35273000  1.0
  C  C268  1  0.53752000  0.36698000  0.38948000  1.0
  C  C269  1  0.51372000  0.36338000  0.32148000  1.0
  C  C270  1  0.40296000  0.34860000  0.98917000  1.0
  C  C271  1  0.38520000  0.35574000  0.02999000  1.0
  C  C272  1  0.35930000  0.34898000  0.96118000  1.0
  C  C273  1  0.28088000  0.36315000  0.01394000  1.0
  C  C274  1  0.29902000  0.35733000  0.97337000  1.0
  C  C275  1  0.32464000  0.36260000  0.04186000  1.0
  C  C276  1  0.24720000  0.01123000  0.63746000  1.0
  C  C277  1  0.20208000  0.98389000  0.60993000  1.0
  C  C278  1  0.23136000  0.05132000  0.67262000  1.0
  C  C279  1  0.12552000  0.03461000  0.65578000  1.0
  C  C280  1  0.17104000  0.06292000  0.68293000  1.0
  C  C281  1  0.14192000  0.99597000  0.61891000  1.0
  C  C282  1  0.06998000  0.65934000  0.65488000  1.0
  C  C283  1  0.05192000  0.65691000  0.61617000  1.0
  C  C284  1  0.02954000  0.67413000  0.68932000  1.0
  C  C285  1  0.95142000  0.68015000  0.64541000  1.0
  C  C286  1  0.97108000  0.68594000  0.68558000  1.0
  C  C287  1  0.99280000  0.66717000  0.61158000  1.0
  H  H288  1  0.40126000  0.70641000  0.91711000  1.0
  H  H289  1  0.50280000  0.58942000  0.79084000  1.0
  H  H290  1  0.39574000  0.58459000  0.71513000  1.0
  H  H291  1  0.31274000  0.67015000  0.85082000  1.0
  H  H292  1  0.10310000  0.86790000  0.21847000  1.0
  H  H293  1  0.24868000  0.74944000  0.16328000  1.0
  H  H294  1  0.37250000  0.81131000  0.22645000  1.0
  H  H295  1  0.22352000  0.90792000  0.23939000  1.0
  H  H296  1  0.01852000  0.12557000  0.26964000  1.0
  H  H297  1  0.05028000  0.17844000  0.42470000  1.0
  H  H298  1  0.18742000  0.22865000  0.43397000  1.0
  H  H299  1  0.13600000  0.15903000  0.28873000  1.0
  H  H300  1  0.91754000  0.27940000  0.19350000  1.0
  H  H301  1  0.83962000  0.41513000  0.20924000  1.0
  H  H302  1  0.93964000  0.41462000  0.13277000  1.0
  H  H303  1  0.01368000  0.31593000  0.16966000  1.0
  H  H304  1  0.76626000  0.27407000  0.85409000  1.0
  H  H305  1  0.65556000  0.14493000  0.82721000  1.0
  H  H306  1  0.69930000  0.07973000  0.78809000  1.0
  H  H307  1  0.82140000  0.20300000  0.77846000  1.0
  H  H308  1  0.62998000  0.89097000  0.60283000  1.0
  H  H309  1  0.48898000  0.82884000  0.66147000  1.0
  H  H310  1  0.57860000  0.74135000  0.64504000  1.0
  H  H311  1  0.67826000  0.80679000  0.57960000  1.0
  H  H312  1  0.48192000  0.54727000  0.00137000  1.0
  H  H313  1  0.62346000  0.48298000  0.88015000  1.0
  H  H314  1  0.65346000  0.38872000  0.88202000  1.0
  H  H315  1  0.53616000  0.47420000  0.00263000  1.0
  H  H316  1  0.32464000  0.01807000  0.46571000  1.0
  H  H317  1  0.47146000  0.89994000  0.40700000  1.0
  H  H318  1  0.50688000  0.90331000  0.50352000  1.0
  H  H319  1  0.38418000  0.02140000  0.53902000  1.0
  H  H320  1  0.23462000  0.38678000  0.53767000  1.0
  H  H321  1  0.32174000  0.46339000  0.46965000  1.0
  H  H322  1  0.35616000  0.53089000  0.51138000  1.0
  H  H323  1  0.21660000  0.47913000  0.59867000  1.0
  H  H324  1  0.99360000  0.59593000  0.11236000  1.0
  H  H325  1  0.16206000  0.54196000  0.01010000  1.0
  H  H326  1  0.19000000  0.44927000  0.01422000  1.0
  H  H327  1  0.04268000  0.52297000  0.11631000  1.0
  H  H328  1  0.83208000  0.11875000  0.52242000  1.0
  H  H329  1  0.98812000  0.00700000  0.46815000  1.0
  H  H330  1  0.02004000  0.01028000  0.56440000  1.0
  H  H331  1  0.88552000  0.12162000  0.59777000  1.0
  H  H332  1  0.66132000  0.53940000  0.53908000  1.0
  H  H333  1  0.79526000  0.59409000  0.46838000  1.0
  H  H334  1  0.82010000  0.49619000  0.37396000  1.0
  H  H335  1  0.71300000  0.46458000  0.46604000  1.0
  H  H336  1  0.40974000  0.78993000  0.03100000  1.0
  H  H337  1  0.40458000  0.65153000  0.02677000  1.0
  H  H338  1  0.26042000  0.66756000  0.06949000  1.0
  H  H339  1  0.28278000  0.76355000  0.01968000  1.0
  H  H340  1  0.08886000  0.93823000  0.32853000  1.0
  H  H341  1  0.10194000  0.03988000  0.27515000  1.0
  H  H342  1  0.25738000  0.04972000  0.27722000  1.0
  H  H343  1  0.21356000  0.96607000  0.33934000  1.0
  H  H344  1  0.04498000  0.22311000  0.30260000  1.0
  H  H345  1  0.05748000  0.37642000  0.34693000  1.0
  H  H346  1  0.90954000  0.38967000  0.32399000  1.0
  H  H347  1  0.93418000  0.24364000  0.27364000  1.0
  H  H348  1  0.76572000  0.39022000  0.07440000  1.0
  H  H349  1  0.79354000  0.24338000  0.95429000  1.0
  H  H350  1  0.95078000  0.24251000  0.95390000  1.0
  H  H351  1  0.89280000  0.38273000  0.05186000  1.0
  H  H352  1  0.61604000  0.05675000  0.65568000  1.0
  H  H353  1  0.63134000  0.95864000  0.71366000  1.0
  H  H354  1  0.78800000  0.95106000  0.71184000  1.0
  H  H355  1  0.74006000  0.02904000  0.64467000  1.0
  H  H356  1  0.56216000  0.77609000  0.74423000  1.0
  H  H357  1  0.57076000  0.62038000  0.63728000  1.0
  H  H358  1  0.42418000  0.59562000  0.65174000  1.0
  H  H359  1  0.45436000  0.73919000  0.75408000  1.0
  H  H360  1  0.78922000  0.62474000  0.83248000  1.0
  H  H361  1  0.67454000  0.75735000  0.88187000  1.0
  H  H362  1  0.75284000  0.78817000  0.82025000  1.0
  H  H363  1  0.78580000  0.64048000  0.75948000  1.0
  H  H364  1  0.66204000  0.77050000  0.13894000  1.0
  H  H365  1  0.56528000  0.83704000  0.06438000  1.0
  H  H366  1  0.53796000  0.93300000  0.15824000  1.0
  H  H367  1  0.57302000  0.83121000  0.19935000  1.0
  H  H368  1  0.40258000  0.21153000  0.40122000  1.0
  H  H369  1  0.35870000  0.14939000  0.24550000  1.0
  H  H370  1  0.43018000  0.05268000  0.21071000  1.0
  H  H371  1  0.46504000  0.13310000  0.35788000  1.0
  H  H372  1  0.33484000  0.38261000  0.24483000  1.0
  H  H373  1  0.22934000  0.24417000  0.17938000  1.0
  H  H374  1  0.14048000  0.25317000  0.11249000  1.0
  H  H375  1  0.24902000  0.38369000  0.18354000  1.0
  H  H376  1  0.17320000  0.24356000  0.86426000  1.0
  H  H377  1  0.07508000  0.17328000  0.93470000  1.0
  H  H378  1  0.05252000  0.07828000  0.84060000  1.0
  H  H379  1  0.08664000  0.18214000  0.80150000  1.0
  H  H380  1  0.87152000  0.85846000  0.77039000  1.0
  H  H381  1  0.92526000  0.80160000  0.61891000  1.0
  H  H382  1  0.98096000  0.84262000  0.60045000  1.0
  H  H383  1  0.89040000  0.93373000  0.75924000  1.0
  H  H384  1  0.34006000  0.14575000  0.76218000  1.0
  H  H385  1  0.44736000  0.07818000  0.83174000  1.0
  H  H386  1  0.46226000  0.17255000  0.92863000  1.0
  H  H387  1  0.41998000  0.21262000  0.82676000  1.0
  H  H388  1  0.23272000  0.90509000  0.72664000  1.0
  H  H389  1  0.38612000  0.81095000  0.62430000  1.0
  H  H390  1  0.38828000  0.73266000  0.65043000  1.0
  H  H391  1  0.24902000  0.83343000  0.74292000  1.0
  H  H392  1  0.11302000  0.60246000  0.79623000  1.0
  H  H393  1  0.18726000  0.75242000  0.86888000  1.0
  H  H394  1  0.17012000  0.76774000  0.97216000  1.0
  H  H395  1  0.06072000  0.64460000  0.88007000  1.0
  H  H396  1  0.94576000  0.85695000  0.08788000  1.0
  H  H397  1  0.92042000  0.79790000  0.18411000  1.0
  H  H398  1  0.87222000  0.83734000  0.24746000  1.0
  H  H399  1  0.93340000  0.93122000  0.17550000  1.0
  H  H400  1  0.81924000  0.17793000  0.23357000  1.0
  H  H401  1  0.71208000  0.24025000  0.37129000  1.0
  H  H402  1  0.73380000  0.15381000  0.38932000  1.0
  H  H403  1  0.80686000  0.10965000  0.25267000  1.0
  H  H404  1  0.51066000  0.38457000  0.13667000  1.0
  H  H405  1  0.60400000  0.24215000  0.06344000  1.0
  H  H406  1  0.62214000  0.23800000  0.15632000  1.0
  H  H407  1  0.59412000  0.38236000  0.19885000  1.0
  H  H408  1  0.75978000  0.60139000  0.03004000  1.0
  H  H409  1  0.81464000  0.64763000  0.92725000  1.0
  H  H410  1  0.95714000  0.68587000  0.96527000  1.0
  H  H411  1  0.87412000  0.64650000  0.06000000  1.0
  H  H412  1  0.56382000  0.09377000  0.40418000  1.0
  H  H413  1  0.62452000  0.94660000  0.36503000  1.0
  H  H414  1  0.77114000  0.97599000  0.40376000  1.0
  H  H415  1  0.69412000  0.08870000  0.39029000  1.0
  H  H416  1  0.39760000  0.37592000  0.30128000  1.0
  H  H417  1  0.46416000  0.35429000  0.42029000  1.0
  H  H418  1  0.60826000  0.39463000  0.42449000  1.0
  H  H419  1  0.52728000  0.36444000  0.29300000  1.0
  H  H420  1  0.43960000  0.38443000  0.07651000  1.0
  H  H421  1  0.37222000  0.34432000  0.92999000  1.0
  H  H422  1  0.22894000  0.38173000  0.96137000  1.0
  H  H423  1  0.31184000  0.36656000  0.07279000  1.0
  H  H424  1  0.21446000  0.92366000  0.58304000  1.0
  H  H425  1  0.26582000  0.07254000  0.69423000  1.0
  H  H426  1  0.12032000  0.09823000  0.73244000  1.0
  H  H427  1  0.10776000  0.97437000  0.59728000  1.0
  H  H428  1  0.08628000  0.61144000  0.56544000  1.0
  H  H429  1  0.04388000  0.67765000  0.71982000  1.0
  H  H430  1  0.90454000  0.72197000  0.71983000  1.0
  H  H431  1  0.97864000  0.66287000  0.58077000  1.0
  In  In432  1  0.57470000  0.71387000  0.95366000  1.0
  In  In433  1  0.62370000  0.61117000  0.89891000  1.0
  In  In434  1  0.59092000  0.65890000  0.00408000  1.0
  In  In435  1  0.39592000  0.96048000  0.23946000  1.0
  In  In436  1  0.45278000  0.91535000  0.29538000  1.0
  In  In437  1  0.40574000  0.01412000  0.34706000  1.0
  In  In438  1  0.24080000  0.25055000  0.29566000  1.0
  In  In439  1  0.28228000  0.29619000  0.39753000  1.0
  In  In440  1  0.24064000  0.35634000  0.35481000  1.0
  In  In441  1  0.08334000  0.29301000  0.04681000  1.0
  In  In442  1  0.12400000  0.39658000  0.10162000  1.0
  In  In443  1  0.08638000  0.35153000  0.99840000  1.0
  In  In444  1  0.91606000  0.04773000  0.75555000  1.0
  In  In445  1  0.95794000  0.10573000  0.70919000  1.0
  In  In446  1  0.93670000  0.00095000  0.65031000  1.0
  In  In447  1  0.73892000  0.75572000  0.69680000  1.0
  In  In448  1  0.78924000  0.70831000  0.59472000  1.0
  In  In449  1  0.76082000  0.65334000  0.64686000  1.0
  In  In450  1  0.60152000  0.25353000  0.95307000  1.0
  In  In451  1  0.55740000  0.30218000  0.89993000  1.0
  In  In452  1  0.59832000  0.35979000  0.00345000  1.0
  In  In453  1  0.44226000  0.96656000  0.70842000  1.0
  In  In454  1  0.39694000  0.91977000  0.60652000  1.0
  In  In455  1  0.44144000  0.01983000  0.65353000  1.0
  In  In456  1  0.26838000  0.71012000  0.75250000  1.0
  In  In457  1  0.21332000  0.61107000  0.70416000  1.0
  In  In458  1  0.26650000  0.65233000  0.64605000  1.0
  In  In459  1  0.09574000  0.75969000  0.05544000  1.0
  In  In460  1  0.05044000  0.70619000  0.10358000  1.0
  In  In461  1  0.10254000  0.65246000  0.00262000  1.0
  In  In462  1  0.91194000  0.04352000  0.29231000  1.0
  In  In463  1  0.88422000  0.10242000  0.39772000  1.0
  In  In464  1  0.91140000  0.99809000  0.35314000  1.0
  In  In465  1  0.75604000  0.28866000  0.24499000  1.0
  In  In466  1  0.71468000  0.39265000  0.29354000  1.0
  In  In467  1  0.74980000  0.34764000  0.35181000  1.0
  O  O468  1  0.59818000  0.75929000  0.01544000  1.0
  O  O469  1  0.58868000  0.72140000  0.05174000  1.0
  O  O470  1  0.56204000  0.76363000  0.94453000  1.0
  O  O471  1  0.65774000  0.64058000  0.86780000  1.0
  O  O472  1  0.64856000  0.71301000  0.91825000  1.0
  O  O473  1  0.65570000  0.56192000  0.84488000  1.0
  O  O474  1  0.68176000  0.65669000  0.00114000  1.0
  O  O475  1  0.70520000  0.61857000  0.92809000  1.0
  O  O476  1  0.60266000  0.65159000  0.05503000  1.0
  O  O477  1  0.60288000  0.66235000  0.95263000  1.0
  O  O478  1  0.50078000  0.66850000  0.00459000  1.0
  O  O479  1  0.49348000  0.71933000  0.98281000  1.0
  O  O480  1  0.60218000  0.56162000  0.90928000  1.0
  O  O481  1  0.57338000  0.59551000  0.98080000  1.0
  O  O482  1  0.51596000  0.68221000  0.90442000  1.0
  O  O483  1  0.54018000  0.60954000  0.87351000  1.0
  O  O484  1  0.42132000  0.02132000  0.25471000  1.0
  O  O485  1  0.41998000  0.05889000  0.32916000  1.0
  O  O486  1  0.37786000  0.95539000  0.18278000  1.0
  O  O487  1  0.50242000  0.89047000  0.24032000  1.0
  O  O488  1  0.46834000  0.92488000  0.20431000  1.0
  O  O489  1  0.47684000  0.85565000  0.27896000  1.0
  O  O490  1  0.49416000  0.02027000  0.36294000  1.0
  O  O491  1  0.52770000  0.94936000  0.32732000  1.0
  O  O492  1  0.37192000  0.06989000  0.39241000  1.0
  O  O493  1  0.42548000  0.96485000  0.29211000  1.0
  O  O494  1  0.31800000  0.99584000  0.33136000  1.0
  O  O495  1  0.31228000  0.98487000  0.26203000  1.0
  O  O496  1  0.43864000  0.92565000  0.35630000  1.0
  O  O497  1  0.40610000  0.99642000  0.39294000  1.0
  O  O498  1  0.34654000  0.90685000  0.22217000  1.0
  O  O499  1  0.36750000  0.89042000  0.27593000  1.0
  O  O500  1  0.27010000  0.27173000  0.25536000  1.0
  O  O501  1  0.24708000  0.34441000  0.29332000  1.0
  O  O502  1  0.21530000  0.19914000  0.24090000  1.0
  O  O503  1  0.33388000  0.24247000  0.36586000  1.0
  O  O504  1  0.32480000  0.22614000  0.29497000  1.0
  O  O505  1  0.29988000  0.28906000  0.44798000  1.0
  O  O506  1  0.33080000  0.35413000  0.34908000  1.0
  O  O507  1  0.36064000  0.32044000  0.38733000  1.0
  O  O508  1  0.21328000  0.41355000  0.36515000  1.0
  O  O509  1  0.24346000  0.30170000  0.35247000  1.0
  O  O510  1  0.15208000  0.34037000  0.34893000  1.0
  O  O511  1  0.15348000  0.26866000  0.29500000  1.0
  O  O512  1  0.26544000  0.35528000  0.44970000  1.0
  O  O513  1  0.25324000  0.39809000  0.41874000  1.0
  O  O514  1  0.21308000  0.21187000  0.31820000  1.0
  O  O515  1  0.20534000  0.26078000  0.39069000  1.0
  O  O516  1  0.10988000  0.25115000  0.98481000  1.0
  O  O517  1  0.08988000  0.28951000  0.95000000  1.0
  O  O518  1  0.06966000  0.23815000  0.04666000  1.0
  O  O519  1  0.16346000  0.36824000  0.13201000  1.0
  O  O520  1  0.16126000  0.29620000  0.07968000  1.0
  O  O521  1  0.15614000  0.44748000  0.15419000  1.0
  O  O522  1  0.17668000  0.34926000  0.99556000  1.0
  O  O523  1  0.20338000  0.38649000  0.06814000  1.0
  O  O524  1  0.06038000  0.35600000  0.94771000  1.0
  O  O525  1  0.09818000  0.34706000  0.04891000  1.0
  O  O526  1  0.99908000  0.34999000  0.01424000  1.0
  O  O527  1  0.99898000  0.29009000  0.02317000  1.0
  O  O528  1  0.09960000  0.44712000  0.09354000  1.0
  O  O529  1  0.09562000  0.41541000  0.01929000  1.0
  O  O530  1  0.03426000  0.31982000  0.10175000  1.0
  O  O531  1  0.04390000  0.39367000  0.12940000  1.0
  O  O532  1  0.93750000  0.98544000  0.73776000  1.0
  O  O533  1  0.93398000  0.95201000  0.66341000  1.0
  O  O534  1  0.90282000  0.05463000  0.81352000  1.0
  O  O535  1  0.00276000  0.13126000  0.76598000  1.0
  O  O536  1  0.99246000  0.08058000  0.78748000  1.0
  O  O537  1  0.96898000  0.16786000  0.72871000  1.0
  O  O538  1  0.02704000  0.00896000  0.65599000  1.0
  O  O539  1  0.03986000  0.08226000  0.68175000  1.0
  O  O540  1  0.94826000  0.94779000  0.59366000  1.0
  O  O541  1  0.94356000  0.05124000  0.70649000  1.0
  O  O542  1  0.84582000  0.00471000  0.65760000  1.0
  O  O543  1  0.83568000  0.01973000  0.72842000  1.0
  O  O544  1  0.94512000  0.09680000  0.64891000  1.0
  O  O545  1  0.92906000  0.02308000  0.60817000  1.0
  O  O546  1  0.85848000  0.09805000  0.77712000  1.0
  O  O547  1  0.86952000  0.12151000  0.72769000  1.0
  O  O548  1  0.75710000  0.74237000  0.74522000  1.0
  O  O549  1  0.75730000  0.66796000  0.70944000  1.0
  O  O550  1  0.72280000  0.81683000  0.74050000  1.0
  O  O551  1  0.82924000  0.76697000  0.62679000  1.0
  O  O552  1  0.82186000  0.78178000  0.69734000  1.0
  O  O553  1  0.81314000  0.70960000  0.54194000  1.0
  O  O554  1  0.84876000  0.66983000  0.65652000  1.0
  O  O555  1  0.87162000  0.69257000  0.60769000  1.0
  O  O556  1  0.78628000  0.59469000  0.63326000  1.0
  O  O557  1  0.75656000  0.70441000  0.64252000  1.0
  O  O558  1  0.67100000  0.65763000  0.65925000  1.0
  O  O559  1  0.65940000  0.73145000  0.70339000  1.0
  O  O560  1  0.77396000  0.64603000  0.54703000  1.0
  O  O561  1  0.74766000  0.61036000  0.58348000  1.0
  O  O562  1  0.68496000  0.77735000  0.66639000  1.0
  O  O563  1  0.70990000  0.73742000  0.59366000  1.0
  O  O564  1  0.57312000  0.27231000  0.01454000  1.0
  O  O565  1  0.59340000  0.34543000  0.05126000  1.0
  O  O566  1  0.62482000  0.19992000  0.95292000  1.0
  O  O567  1  0.50762000  0.24767000  0.87525000  1.0
  O  O568  1  0.51904000  0.22731000  0.92666000  1.0
  O  O569  1  0.53640000  0.30044000  0.84518000  1.0
  O  O570  1  0.50800000  0.35625000  0.00601000  1.0
  O  O571  1  0.47886000  0.32277000  0.93405000  1.0
  O  O572  1  0.61824000  0.41759000  0.05279000  1.0
  O  O573  1  0.59658000  0.30613000  0.94975000  1.0
  O  O574  1  0.68718000  0.34531000  0.99671000  1.0
  O  O575  1  0.68720000  0.27251000  0.97499000  1.0
  O  O576  1  0.57386000  0.36230000  0.90946000  1.0
  O  O577  1  0.59232000  0.40307000  0.98263000  1.0
  O  O578  1  0.63636000  0.21867000  0.89311000  1.0
  O  O579  1  0.63228000  0.26668000  0.86769000  1.0
  O  O580  1  0.41648000  0.02796000  0.75250000  1.0
  O  O581  1  0.43400000  0.06555000  0.71654000  1.0
  O  O582  1  0.45620000  0.96973000  0.76471000  1.0
  O  O583  1  0.36528000  0.88316000  0.63103000  1.0
  O  O584  1  0.36968000  0.92929000  0.70473000  1.0
  O  O585  1  0.35164000  0.87264000  0.55800000  1.0
  O  O586  1  0.35262000  0.02638000  0.64663000  1.0
  O  O587  1  0.32032000  0.95551000  0.61804000  1.0
  O  O588  1  0.47718000  0.07409000  0.66123000  1.0
  O  O589  1  0.41732000  0.97157000  0.65961000  1.0
  O  O590  1  0.52592000  0.99574000  0.64840000  1.0
  O  O591  1  0.52886000  0.98396000  0.70628000  1.0
  O  O592  1  0.42592000  0.92830000  0.55696000  1.0
  O  O593  1  0.43844000  0.00222000  0.59022000  1.0
  O  O594  1  0.48756000  0.90987000  0.67659000  1.0
  O  O595  1  0.47806000  0.89102000  0.60457000  1.0
  O  O596  1  0.26796000  0.75418000  0.73100000  1.0
  O  O597  1  0.28864000  0.71157000  0.65840000  1.0
  O  O598  1  0.27216000  0.76775000  0.80536000  1.0
  O  O599  1  0.18214000  0.63903000  0.76529000  1.0
  O  O600  1  0.19220000  0.71104000  0.78600000  1.0
  O  O601  1  0.16034000  0.56422000  0.69954000  1.0
  O  O602  1  0.17600000  0.65901000  0.64408000  1.0
  O  O603  1  0.13852000  0.62916000  0.68398000  1.0
  O  O604  1  0.26520000  0.64567000  0.58758000  1.0
  O  O605  1  0.23900000  0.66086000  0.70059000  1.0
  O  O606  1  0.35442000  0.65197000  0.66253000  1.0
  O  O607  1  0.35654000  0.70063000  0.73624000  1.0
  O  O608  1  0.24286000  0.55865000  0.64814000  1.0
  O  O609  1  0.27532000  0.58828000  0.60747000  1.0
  O  O610  1  0.31250000  0.68086000  0.78030000  1.0
  O  O611  1  0.29022000  0.60822000  0.73491000  1.0
  O  O612  1  0.08350000  0.74048000  0.99150000  1.0
  O  O613  1  0.11454000  0.66921000  0.95690000  1.0
  O  O614  1  0.10368000  0.81482000  0.05524000  1.0
  O  O615  1  0.00734000  0.76350000  0.13396000  1.0
  O  O616  1  0.01316000  0.78449000  0.08272000  1.0
  O  O617  1  0.01058000  0.70373000  0.15196000  1.0
  O  O618  1  0.01180000  0.64937000  0.99523000  1.0
  O  O619  1  0.97570000  0.68311000  0.06566000  1.0
  O  O620  1  0.11228000  0.59564000  0.94938000  1.0
  O  O621  1  0.07852000  0.70546000  0.05236000  1.0
  O  O622  1  0.18912000  0.67163000  0.01976000  1.0
  O  O623  1  0.18528000  0.74534000  0.04476000  1.0
  O  O624  1  0.07640000  0.64803000  0.09528000  1.0
  O  O625  1  0.10894000  0.61013000  0.02459000  1.0
  O  O626  1  0.13242000  0.79063000  0.11512000  1.0
  O  O627  1  0.12738000  0.73864000  0.13567000  1.0
  O  O628  1  0.89126000  0.98064000  0.25075000  1.0
  O  O629  1  0.91232000  0.94850000  0.29138000  1.0
  O  O630  1  0.91384000  0.04381000  0.23702000  1.0
  O  O631  1  0.83882000  0.13037000  0.36873000  1.0
  O  O632  1  0.83264000  0.07520000  0.29796000  1.0
  O  O633  1  0.86924000  0.16289000  0.44365000  1.0
  O  O634  1  0.82072000  0.00377000  0.36160000  1.0
  O  O635  1  0.80404000  0.07757000  0.40298000  1.0
  O  O636  1  0.90638000  0.94531000  0.35798000  1.0
  O  O637  1  0.89324000  0.04668000  0.34618000  1.0
  O  O638  1  0.00044000  0.00544000  0.34489000  1.0
  O  O639  1  0.99868000  0.02306000  0.29072000  1.0
  O  O640  1  0.90890000  0.09497000  0.44846000  1.0
  O  O641  1  0.93074000  0.02222000  0.41648000  1.0
  O  O642  1  0.96150000  0.09772000  0.31578000  1.0
  O  O643  1  0.97004000  0.11800000  0.38766000  1.0
  O  O644  1  0.73154000  0.24657000  0.26527000  1.0
  O  O645  1  0.75242000  0.28557000  0.33819000  1.0
  O  O646  1  0.76366000  0.23273000  0.19045000  1.0
  O  O647  1  0.67158000  0.36424000  0.23611000  1.0
  O  O648  1  0.68372000  0.29140000  0.21040000  1.0
  O  O649  1  0.68780000  0.44047000  0.28454000  1.0
  O  O650  1  0.65908000  0.35153000  0.35522000  1.0
  O  O651  1  0.63504000  0.39036000  0.32116000  1.0
  O  O652  1  0.75366000  0.34994000  0.40832000  1.0
  O  O653  1  0.73110000  0.34081000  0.29609000  1.0
  O  O654  1  0.83856000  0.34439000  0.33701000  1.0
  O  O655  1  0.84092000  0.28736000  0.26639000  1.0
  O  O656  1  0.73822000  0.44364000  0.35209000  1.0
  O  O657  1  0.75944000  0.41182000  0.39307000  1.0
  O  O658  1  0.81136000  0.31588000  0.22053000  1.0
  O  O659  1  0.79862000  0.38938000  0.26691000  1.0
  O  O660  1  0.42966000  0.58279000  0.73197000  1.0
  O  O661  1  0.38866000  0.67670000  0.90863000  1.0
  O  O662  1  0.34288000  0.78996000  0.20687000  1.0
  O  O663  1  0.13000000  0.86562000  0.19535000  1.0
  O  O664  1  0.14352000  0.22626000  0.43713000  1.0
  O  O665  1  0.04804000  0.10963000  0.27719000  1.0
  O  O666  1  0.91374000  0.42284000  0.15809000  1.0
  O  O667  1  0.93516000  0.30639000  0.21695000  1.0
  O  O668  1  0.73628000  0.08650000  0.77712000  1.0
  O  O669  1  0.74180000  0.26060000  0.82738000  1.0
  O  O670  1  0.55402000  0.76794000  0.65763000  1.0
  O  O671  1  0.60706000  0.86582000  0.58083000  1.0
  O  O672  1  0.63796000  0.40884000  0.87301000  1.0
  O  O673  1  0.52488000  0.54906000  0.00968000  1.0
  O  O674  1  0.49134000  0.89403000  0.47433000  1.0
  O  O675  1  0.36740000  0.02729000  0.47109000  1.0
  O  O676  1  0.33718000  0.53974000  0.53963000  1.0
  O  O677  1  0.20558000  0.40324000  0.53048000  1.0
  O  O678  1  0.17610000  0.46776000  0.00272000  1.0
  O  O679  1  0.03396000  0.59947000  0.12562000  1.0
  O  O680  1  0.00458000  0.99999000  0.53495000  1.0
  O  O681  1  0.87392000  0.12971000  0.52996000  1.0
  O  O682  1  0.80650000  0.52575000  0.39458000  1.0
  O  O683  1  0.70472000  0.53336000  0.54006000  1.0
  O  O684  1  0.29540000  0.65340000  0.05042000  1.0
  O  O685  1  0.39566000  0.76572000  0.00313000  1.0
  O  O686  1  0.21602000  0.04111000  0.26584000  1.0
  O  O687  1  0.09822000  0.96827000  0.35091000  1.0
  O  O688  1  0.94676000  0.39165000  0.34007000  1.0
  O  O689  1  0.04778000  0.22925000  0.27861000  1.0
  O  O690  1  0.90816000  0.23656000  0.95703000  1.0
  O  O691  1  0.77720000  0.38855000  0.04689000  1.0
  O  O692  1  0.74594000  0.95813000  0.72218000  1.0
  O  O693  1  0.62454000  0.02630000  0.63405000  1.0
  O  O694  1  0.45992000  0.60064000  0.63833000  1.0
  O  O695  1  0.56722000  0.75596000  0.75540000  1.0
  O  O696  1  0.71506000  0.77991000  0.82890000  1.0
  O  O697  1  0.75134000  0.62083000  0.81627000  1.0
  O  O698  1  0.52878000  0.90708000  0.13024000  1.0
  O  O699  1  0.61830000  0.76442000  0.13397000  1.0
  O  O700  1  0.39492000  0.07210000  0.21874000  1.0
  O  O701  1  0.43490000  0.21163000  0.38217000  1.0
  O  O702  1  0.18164000  0.24339000  0.11401000  1.0
  O  O703  1  0.29112000  0.38440000  0.25120000  1.0
  O  O704  1  0.03938000  0.10394000  0.86763000  1.0
  O  O705  1  0.12924000  0.24894000  0.86856000  1.0
  O  O706  1  0.97632000  0.87189000  0.62571000  1.0
  O  O707  1  0.84260000  0.86515000  0.75349000  1.0
  O  O708  1  0.47628000  0.14599000  0.90281000  1.0
  O  O709  1  0.38432000  0.14431000  0.75794000  1.0
  O  O710  1  0.37588000  0.74450000  0.63187000  1.0
  O  O711  1  0.27150000  0.90347000  0.73948000  1.0
  O  O712  1  0.16890000  0.77172000  0.94687000  1.0
  O  O713  1  0.08350000  0.62535000  0.80152000  1.0
  O  O714  1  0.87320000  0.86676000  0.25147000  1.0
  O  O715  1  0.97838000  0.86430000  0.10934000  1.0
  O  O716  1  0.73498000  0.18259000  0.39190000  1.0
  O  O717  1  0.77780000  0.16684000  0.23186000  1.0
  O  O718  1  0.63620000  0.23709000  0.12968000  1.0
  O  O719  1  0.55480000  0.38495000  0.13258000  1.0
  O  O720  1  0.92670000  0.66517000  0.94574000  1.0
  O  O721  1  0.76046000  0.63303000  0.04227000  1.0
  O  O722  1  0.73676000  0.96018000  0.38479000  1.0
  O  O723  1  0.58012000  0.07580000  0.37469000  1.0
  O  O724  1  0.57544000  0.37536000  0.42329000  1.0
  O  O725  1  0.41422000  0.34716000  0.29307000  1.0
  O  O726  1  0.26000000  0.35987000  0.94482000  1.0
  O  O727  1  0.42608000  0.35428000  0.05792000  1.0
  O  O728  1  0.15934000  0.10076000  0.72064000  1.0
  O  O729  1  0.21618000  0.94555000  0.57389000  1.0
  O  O730  1  0.93496000  0.70278000  0.72172000  1.0
  O  O731  1  0.09102000  0.64316000  0.58218000  1.0
