# generated using pymatgen
data_Gd5H15C27O34
_symmetry_space_group_name_H-M   'P 1'
_cell_length_a   25.85710000
_cell_length_b   35.50250001
_cell_length_c   35.50200000
_cell_angle_alpha   119.99860236
_cell_angle_beta   90.00000000
_cell_angle_gamma   90.00000000
_symmetry_Int_Tables_number   1
_chemical_formula_structural   Gd5H15C27O34
_chemical_formula_sum   'Gd60 H180 C324 O408'
_cell_volume   28224.63399137
_cell_formula_units_Z   12
loop_
 _symmetry_equiv_pos_site_id
 _symmetry_equiv_pos_as_xyz
  1  'x, y, z'
loop_
 _atom_site_type_symbol
 _atom_site_label
 _atom_site_symmetry_multiplicity
 _atom_site_fract_x
 _atom_site_fract_y
 _atom_site_fract_z
 _atom_site_occupancy
  Gd  Gd0  1  0.05758000  0.63700000  0.10399000  1.0
  Gd  Gd1  1  0.94381000  0.69235000  0.07334000  1.0
  Gd  Gd2  1  0.01425000  0.76069000  0.17506000  1.0
  Gd  Gd3  1  0.89406000  0.77564000  0.15972000  1.0
  Gd  Gd4  1  0.91718000  0.68708000  0.16607000  1.0
  Gd  Gd5  1  0.87658000  0.10058000  0.40328000  1.0
  Gd  Gd6  1  0.78472000  0.05474000  0.33205000  1.0
  Gd  Gd7  1  0.84705000  0.17469000  0.38576000  1.0
  Gd  Gd8  1  0.72963000  0.15527000  0.36474000  1.0
  Gd  Gd9  1  0.74929000  0.12247000  0.43722000  1.0
  Gd  Gd10  1  0.75954000  0.42537000  0.30747000  1.0
  Gd  Gd11  1  0.64256000  0.34122000  0.28265000  1.0
  Gd  Gd12  1  0.68473000  0.35359000  0.19506000  1.0
  Gd  Gd13  1  0.56531000  0.33243000  0.20437000  1.0
  Gd  Gd14  1  0.60423000  0.43167000  0.27896000  1.0
  Gd  Gd15  1  0.55721000  0.26516000  0.87955000  1.0
  Gd  Gd16  1  0.44263000  0.24398000  0.91746000  1.0
  Gd  Gd17  1  0.49099000  0.18293000  0.79463000  1.0
  Gd  Gd18  1  0.37576000  0.18087000  0.82649000  1.0
  Gd  Gd19  1  0.41106000  0.28027000  0.84676000  1.0
  Gd  Gd20  1  0.35632000  0.85355000  0.56607000  1.0
  Gd  Gd21  1  0.28963000  0.89435000  0.65767000  1.0
  Gd  Gd22  1  0.34394000  0.79298000  0.61556000  1.0
  Gd  Gd23  1  0.21519000  0.80485000  0.62088000  1.0
  Gd  Gd24  1  0.25106000  0.80479000  0.53463000  1.0
  Gd  Gd25  1  0.17840000  0.54025000  0.68178000  1.0
  Gd  Gd26  1  0.11690000  0.63402000  0.73743000  1.0
  Gd  Gd27  1  0.17102000  0.58632000  0.79169000  1.0
  Gd  Gd28  1  0.04402000  0.60081000  0.79423000  1.0
  Gd  Gd29  1  0.06215000  0.51665000  0.69914000  1.0
  Gd  Gd30  1  0.03931000  0.41116000  0.10573000  1.0
  Gd  Gd31  1  0.16031000  0.32865000  0.06433000  1.0
  Gd  Gd32  1  0.09319000  0.34140000  0.15860000  1.0
  Gd  Gd33  1  0.21574000  0.32790000  0.15154000  1.0
  Gd  Gd34  1  0.18214000  0.42195000  0.16185000  1.0
  Gd  Gd35  1  0.86379000  0.09725000  0.68485000  1.0
  Gd  Gd36  1  0.96273000  0.06300000  0.72183000  1.0
  Gd  Gd37  1  0.91115000  0.18286000  0.77913000  1.0
  Gd  Gd38  1  0.02935000  0.14431000  0.79047000  1.0
  Gd  Gd39  1  0.00920000  0.14231000  0.69645000  1.0
  Gd  Gd40  1  0.72558000  0.67627000  0.56485000  1.0
  Gd  Gd41  1  0.82618000  0.68164000  0.62584000  1.0
  Gd  Gd42  1  0.75024000  0.77666000  0.62129000  1.0
  Gd  Gd43  1  0.87113000  0.77249000  0.63080000  1.0
  Gd  Gd44  1  0.84849000  0.68517000  0.53326000  1.0
  Gd  Gd45  1  0.50157000  0.55421000  0.87516000  1.0
  Gd  Gd46  1  0.62667000  0.63490000  0.90200000  1.0
  Gd  Gd47  1  0.58412000  0.57893000  0.79411000  1.0
  Gd  Gd48  1  0.70528000  0.59890000  0.81756000  1.0
  Gd  Gd49  1  0.65733000  0.52417000  0.83769000  1.0
  Gd  Gd50  1  0.34527000  0.84492000  0.30180000  1.0
  Gd  Gd51  1  0.46926000  0.90059000  0.28345000  1.0
  Gd  Gd52  1  0.43147000  0.79872000  0.19383000  1.0
  Gd  Gd53  1  0.55080000  0.83028000  0.21150000  1.0
  Gd  Gd54  1  0.50158000  0.80829000  0.28514000  1.0
  Gd  Gd55  1  0.22692000  0.27566000  0.41703000  1.0
  Gd  Gd56  1  0.29235000  0.21763000  0.32496000  1.0
  Gd  Gd57  1  0.24325000  0.16878000  0.38153000  1.0
  Gd  Gd58  1  0.36878000  0.16826000  0.36445000  1.0
  Gd  Gd59  1  0.34705000  0.26748000  0.44300000  1.0
  H  H60  1  0.95955000  0.63728000  0.09654000  1.0
  H  H61  1  0.84481000  0.69495000  0.10975000  1.0
  H  H62  1  0.02880000  0.70509000  0.10217000  1.0
  H  H63  1  0.93152000  0.77626000  0.23340000  1.0
  H  H64  1  0.01473000  0.69309000  0.17621000  1.0
  H  H65  1  0.97524000  0.78306000  0.11144000  1.0
  H  H66  1  0.80607000  0.04385000  0.40349000  1.0
  H  H67  1  0.68463000  0.08439000  0.36802000  1.0
  H  H68  1  0.88303000  0.09150000  0.32555000  1.0
  H  H69  1  0.76158000  0.20718000  0.44598000  1.0
  H  H70  1  0.84266000  0.17704000  0.46628000  1.0
  H  H71  1  0.80099000  0.12040000  0.30447000  1.0
  H  H72  1  0.66519000  0.42034000  0.32680000  1.0
  H  H73  1  0.53996000  0.37453000  0.29324000  1.0
  H  H74  1  0.72121000  0.35124000  0.25412000  1.0
  H  H75  1  0.59682000  0.39726000  0.18613000  1.0
  H  H76  1  0.69473000  0.43074000  0.25445000  1.0
  H  H77  1  0.64812000  0.27606000  0.19166000  1.0
  H  H78  1  0.46848000  0.31884000  0.92800000  1.0
  H  H79  1  0.34378000  0.25863000  0.89615000  1.0
  H  H80  1  0.53308000  0.19145000  0.87449000  1.0
  H  H81  1  0.40080000  0.20169000  0.76413000  1.0
  H  H82  1  0.51234000  0.25370000  0.80023000  1.0
  H  H83  1  0.45334000  0.15111000  0.85122000  1.0
  H  H84  1  0.26924000  0.89534000  0.57849000  1.0
  H  H85  1  0.19256000  0.86972000  0.60649000  1.0
  H  H86  1  0.39717000  0.87447000  0.64554000  1.0
  H  H87  1  0.26359000  0.73749000  0.55146000  1.0
  H  H88  1  0.34856000  0.76742000  0.52538000  1.0
  H  H89  1  0.28090000  0.83683000  0.68948000  1.0
  H  H90  1  0.09158000  0.55866000  0.65428000  1.0
  H  H91  1  0.01154000  0.59391000  0.71780000  1.0
  H  H92  1  0.22376000  0.61654000  0.74140000  1.0
  H  H93  1  0.08705000  0.52606000  0.78093000  1.0
  H  H94  1  0.16038000  0.49647000  0.72350000  1.0
  H  H95  1  0.11611000  0.66357000  0.82698000  1.0
  H  H96  1  0.13602000  0.40588000  0.09557000  1.0
  H  H97  1  0.25908000  0.36387000  0.10340000  1.0
  H  H98  1  0.07237000  0.33666000  0.09108000  1.0
  H  H99  1  0.16779000  0.39421000  0.22502000  1.0
  H  H100  1  0.08759000  0.41693000  0.17354000  1.0
  H  H101  1  0.14454000  0.26574000  0.09416000  1.0
  H  H102  1  0.96409000  0.05496000  0.64584000  1.0
  H  H103  1  0.06533000  0.08765000  0.71334000  1.0
  H  H104  1  0.86584000  0.10109000  0.76178000  1.0
  H  H105  1  0.00986000  0.21827000  0.78375000  1.0
  H  H106  1  0.91070000  0.18258000  0.70762000  1.0
  H  H107  1  0.93864000  0.12450000  0.81155000  1.0
  H  H108  1  0.80253000  0.61577000  0.53962000  1.0
  H  H109  1  0.92218000  0.69449000  0.59640000  1.0
  H  H110  1  0.72265000  0.72046000  0.65100000  1.0
  H  H111  1  0.82974000  0.77493000  0.56338000  1.0
  H  H112  1  0.75019000  0.72519000  0.52997000  1.0
  H  H113  1  0.80343000  0.77367000  0.68824000  1.0
  H  H114  1  0.59803000  0.56464000  0.90063000  1.0
  H  H115  1  0.72833000  0.58895000  0.88651000  1.0
  H  H116  1  0.54644000  0.61318000  0.86532000  1.0
  H  H117  1  0.66666667  0.51792000  0.75356000  1.0
  H  H118  1  0.56677000  0.52009000  0.81164000  1.0
  H  H119  1  0.63048000  0.66306000  0.83942000  1.0
  H  H120  1  0.43890000  0.86651000  0.32654000  1.0
  H  H121  1  0.56840000  0.87909000  0.30120000  1.0
  H  H122  1  0.39311000  0.86107000  0.24872000  1.0
  H  H123  1  0.51984000  0.74877000  0.19586000  1.0
  H  H124  1  0.41095000  0.78339000  0.25438000  1.0
  H  H125  1  0.47301000  0.87227000  0.19137000  1.0
  H  H126  1  0.31048000  0.30476000  0.39616000  1.0
  H  H127  1  0.39691000  0.24536000  0.36696000  1.0
  H  H128  1  0.18576000  0.20936000  0.34280000  1.0
  H  H129  1  0.32962000  0.18829000  0.44268000  1.0
  H  H130  1  0.25255000  0.24206000  0.46755000  1.0
  H  H131  1  0.29632000  0.13001000  0.30305000  1.0
  H  H132  1  0.33224000  0.67389000  0.13350000  1.0
  H  H133  1  0.17439000  0.64803000  0.09618000  1.0
  H  H134  1  0.21413000  0.76520000  0.21435000  1.0
  H  H135  1  0.95515000  0.25587000  0.52348000  1.0
  H  H136  1  0.11966000  0.27610000  0.52864000  1.0
  H  H137  1  0.04846000  0.17949000  0.40950000  1.0
  H  H138  1  0.95266000  0.32719000  0.12252000  1.0
  H  H139  1  0.79145000  0.34532000  0.13343000  1.0
  H  H140  1  0.89199000  0.44424000  0.23005000  1.0
  H  H141  1  0.59716000  0.15011000  0.70927000  1.0
  H  H142  1  0.75402000  0.13779000  0.66851000  1.0
  H  H143  1  0.71781000  0.20600000  0.80581000  1.0
  H  H144  1  0.48762000  0.77690000  0.48270000  1.0
  H  H145  1  0.64872000  0.76149000  0.49869000  1.0
  H  H146  1  0.53851000  0.76141000  0.59011000  1.0
  H  H147  1  0.47885000  0.57207000  0.73271000  1.0
  H  H148  1  0.31916000  0.58916000  0.71839000  1.0
  H  H149  1  0.36526000  0.51186000  0.77595000  1.0
  H  H150  1  0.07729000  0.54108000  0.98977000  1.0
  H  H151  1  0.14505000  0.52388000  0.87237000  1.0
  H  H152  1  0.03783000  0.62900000  0.94324000  1.0
  H  H153  1  0.99978000  0.03131000  0.31984000  1.0
  H  H154  1  0.06039000  0.90385000  0.23582000  1.0
  H  H155  1  0.89610000  0.92202000  0.26127000  1.0
  H  H156  1  0.79552000  0.32084000  0.46780000  1.0
  H  H157  1  0.76727000  0.41617000  0.42988000  1.0
  H  H158  1  0.74591000  0.27955000  0.33734000  1.0
  H  H159  1  0.64307000  0.29992000  0.96308000  1.0
  H  H160  1  0.70498000  0.26754000  0.05464000  1.0
  H  H161  1  0.54084000  0.28892000  0.05292000  1.0
  H  H162  1  0.41551000  0.97877000  0.57546000  1.0
  H  H163  1  0.48130000  0.09370000  0.68094000  1.0
  H  H164  1  0.36332000  0.02440000  0.70693000  1.0
  H  H165  1  0.22993000  0.55318000  0.56771000  1.0
  H  H166  1  0.30152000  0.65139000  0.54922000  1.0
  H  H167  1  0.20315000  0.68866000  0.66054000  1.0
  H  H168  1  0.97752000  0.38002000  0.02176000  1.0
  H  H169  1  0.89076000  0.28329000  0.91577000  1.0
  H  H170  1  0.04904000  0.25753000  0.93561000  1.0
  H  H171  1  0.89348000  0.95515000  0.57808000  1.0
  H  H172  1  0.83849000  0.83346000  0.55851000  1.0
  H  H173  1  0.84907000  0.94263000  0.68864000  1.0
  H  H174  1  0.65627000  0.55507000  0.56343000  1.0
  H  H175  1  0.60782000  0.52681000  0.66199000  1.0
  H  H176  1  0.71005000  0.63426000  0.69573000  1.0
  H  H177  1  0.48601000  0.69887000  0.13702000  1.0
  H  H178  1  0.52613000  0.58397000  0.01918000  1.0
  H  H179  1  0.55149000  0.70998000  0.03178000  1.0
  H  H180  1  0.29492000  0.10200000  0.45915000  1.0
  H  H181  1  0.33659000  0.97206000  0.42566000  1.0
  H  H182  1  0.36032000  0.01618000  0.33351000  1.0
  H  H183  1  0.06753000  0.34405000  0.26575000  1.0
  H  H184  1  0.13618000  0.36008000  0.38183000  1.0
  H  H185  1  0.21298000  0.28109000  0.25857000  1.0
  H  H186  1  0.99786000  0.65110000  0.26590000  1.0
  H  H187  1  0.08337000  0.54678000  0.26446000  1.0
  H  H188  1  0.05060000  0.54385000  0.14428000  1.0
  H  H189  1  0.93032000  0.04292000  0.57989000  1.0
  H  H190  1  0.82091000  0.04457000  0.49063000  1.0
  H  H191  1  0.89782000  0.16349000  0.58269000  1.0
  H  H192  1  0.63449000  0.57207000  0.31751000  1.0
  H  H193  1  0.68876000  0.68559000  0.43235000  1.0
  H  H194  1  0.75100000  0.56086000  0.39842000  1.0
  H  H195  1  0.53777000  0.37661000  0.93247000  1.0
  H  H196  1  0.61954000  0.47269000  0.91830000  1.0
  H  H197  1  0.52049000  0.38205000  0.81478000  1.0
  H  H198  1  0.46089000  0.71070000  0.32867000  1.0
  H  H199  1  0.37998000  0.70817000  0.43312000  1.0
  H  H200  1  0.34361000  0.80654000  0.40116000  1.0
  H  H201  1  0.14415000  0.38035000  0.65936000  1.0
  H  H202  1  0.25977000  0.29671000  0.56981000  1.0
  H  H203  1  0.19929000  0.40300000  0.55775000  1.0
  H  H204  1  0.78010000  0.71423000  0.07962000  1.0
  H  H205  1  0.72852000  0.62686000  0.95263000  1.0
  H  H206  1  0.81734000  0.73817000  0.97464000  1.0
  H  H207  1  0.55380000  0.00495000  0.34557000  1.0
  H  H208  1  0.61291000  0.10932000  0.33374000  1.0
  H  H209  1  0.65383000  0.97702000  0.23713000  1.0
  H  H210  1  0.47906000  0.19789000  0.34515000  1.0
  H  H211  1  0.56383000  0.29756000  0.34262000  1.0
  H  H212  1  0.45841000  0.22055000  0.23694000  1.0
  H  H213  1  0.36118000  0.11105000  0.93904000  1.0
  H  H214  1  0.27063000  0.18139000  0.05602000  1.0
  H  H215  1  0.29717000  0.23578000  0.97334000  1.0
  H  H216  1  0.13612000  0.90519000  0.76722000  1.0
  H  H217  1  0.05852000  0.02900000  0.82523000  1.0
  H  H218  1  0.12748000  0.97623000  0.69839000  1.0
  H  H219  1  0.97781000  0.75489000  0.85215000  1.0
  H  H220  1  0.89265000  0.81534000  0.79182000  1.0
  H  H221  1  0.95848000  0.68823000  0.71324000  1.0
  H  H222  1  0.64443000  0.74343000  0.30614000  1.0
  H  H223  1  0.80184000  0.70849000  0.26770000  1.0
  H  H224  1  0.71640000  0.77711000  0.21671000  1.0
  H  H225  1  0.46952000  0.26069000  0.53919000  1.0
  H  H226  1  0.62930000  0.22657000  0.53718000  1.0
  H  H227  1  0.54929000  0.18788000  0.41659000  1.0
  H  H228  1  0.30574000  0.50645000  0.25405000  1.0
  H  H229  1  0.46496000  0.50972000  0.28635000  1.0
  H  H230  1  0.38928000  0.38570000  0.20703000  1.0
  H  H231  1  0.12717000  0.24349000  0.71824000  1.0
  H  H232  1  0.27562000  0.29521000  0.77266000  1.0
  H  H233  1  0.20283000  0.20131000  0.79881000  1.0
  H  H234  1  0.09930000  0.78706000  0.46479000  1.0
  H  H235  1  0.94119000  0.75028000  0.46450000  1.0
  H  H236  1  0.04072000  0.77430000  0.57165000  1.0
  H  H237  1  0.95815000  0.42314000  0.73194000  1.0
  H  H238  1  0.80173000  0.42552000  0.77499000  1.0
  H  H239  1  0.87256000  0.54303000  0.79202000  1.0
  C  C240  1  0.00053000  0.62070000  0.17819000  1.0
  C  C241  1  0.85576000  0.74311000  0.05349000  1.0
  C  C242  1  0.13014000  0.71571000  0.16448000  1.0
  C  C243  1  0.02207000  0.61389000  0.01050000  1.0
  C  C244  1  0.97006000  0.85984000  0.21869000  1.0
  C  C245  1  0.81109000  0.73811000  0.21172000  1.0
  C  C246  1  0.84578000  0.12102000  0.50317000  1.0
  C  C247  1  0.68977000  0.06520000  0.27752000  1.0
  C  C248  1  0.94895000  0.19146000  0.44020000  1.0
  C  C249  1  0.90097000  0.00918000  0.31884000  1.0
  C  C250  1  0.77715000  0.24952000  0.39053000  1.0
  C  C251  1  0.64598000  0.18395000  0.45029000  1.0
  C  C252  1  0.68910000  0.51272000  0.32911000  1.0
  C  C253  1  0.54896000  0.27626000  0.26058000  1.0
  C  C254  1  0.78786000  0.41442000  0.21275000  1.0
  C  C255  1  0.74009000  0.36050000  0.34610000  1.0
  C  C256  1  0.62105000  0.29455000  0.10715000  1.0
  C  C257  1  0.48479000  0.42347000  0.24542000  1.0
  C  C258  1  0.49405000  0.33478000  0.85476000  1.0
  C  C259  1  0.36211000  0.17627000  0.91960000  1.0
  C  C260  1  0.61222000  0.19672000  0.79440000  1.0
  C  C261  1  0.54310000  0.28829000  0.97599000  1.0
  C  C262  1  0.42456000  0.09576000  0.74501000  1.0
  C  C263  1  0.29392000  0.24547000  0.80859000  1.0
  C  C264  1  0.32765000  0.78222000  0.46045000  1.0
  C  C265  1  0.17225000  0.90570000  0.69602000  1.0
  C  C266  1  0.45346000  0.78604000  0.55702000  1.0
  C  C267  1  0.35990000  0.95552000  0.62519000  1.0
  C  C268  1  0.26322000  0.72125000  0.61959000  1.0
  C  C269  1  0.12974000  0.79207000  0.54042000  1.0
  C  C270  1  0.14043000  0.43888000  0.63208000  1.0
  C  C271  1  0.00714000  0.68247000  0.77706000  1.0
  C  C272  1  0.27972000  0.53476000  0.73946000  1.0
  C  C273  1  0.18777000  0.60627000  0.64594000  1.0
  C  C274  1  0.09768000  0.59036000  0.87027000  1.0
  C  C275  1  0.96809000  0.50877000  0.75585000  1.0
  C  C276  1  0.09653000  0.49807000  0.17657000  1.0
  C  C277  1  0.25103000  0.25253000  0.04802000  1.0
  C  C278  1  0.98450000  0.40539000  0.18427000  1.0
  C  C279  1  0.06517000  0.33458000  0.01049000  1.0
  C  C280  1  0.14555000  0.29991000  0.21074000  1.0
  C  C281  1  0.29277000  0.42040000  0.20434000  1.0
  C  C282  1  0.94212000  0.12776000  0.63004000  1.0
  C  C283  1  0.06548000  0.04182000  0.75657000  1.0
  C  C284  1  0.80001000  0.17673000  0.74689000  1.0
  C  C285  1  0.88066000  0.00049000  0.66485000  1.0
  C  C286  1  0.96930000  0.22637000  0.87636000  1.0
  C  C287  1  0.11402000  0.19049000  0.75148000  1.0
  C  C288  1  0.74727000  0.64263000  0.46110000  1.0
  C  C289  1  0.89694000  0.74638000  0.70923000  1.0
  C  C290  1  0.64394000  0.75253000  0.56810000  1.0
  C  C291  1  0.71561000  0.62461000  0.61535000  1.0
  C  C292  1  0.82023000  0.85812000  0.64209000  1.0
  C  C293  1  0.94161000  0.75140000  0.54119000  1.0
  C  C294  1  0.56900000  0.46165000  0.84844000  1.0
  C  C295  1  0.73315000  0.68282000  0.92225000  1.0
  C  C296  1  0.47328000  0.52996000  0.77656000  1.0
  C  C297  1  0.55364000  0.62391000  0.97517000  1.0
  C  C298  1  0.65530000  0.59364000  0.72921000  1.0
  C  C299  1  0.77883000  0.51061000  0.80193000  1.0
  C  C300  1  0.40942000  0.78012000  0.33258000  1.0
  C  C301  1  0.56724000  0.94269000  0.26431000  1.0
  C  C302  1  0.32083000  0.75287000  0.20492000  1.0
  C  C303  1  0.36980000  0.94566000  0.34351000  1.0
  C  C304  1  0.50965000  0.75791000  0.11371000  1.0
  C  C305  1  0.62330000  0.78275000  0.25901000  1.0
  C  C306  1  0.26304000  0.33174000  0.51826000  1.0
  C  C307  1  0.41008000  0.18644000  0.28611000  1.0
  C  C308  1  0.13892000  0.22378000  0.44410000  1.0
  C  C309  1  0.21244000  0.30104000  0.34363000  1.0
  C  C310  1  0.32054000  0.09604000  0.38292000  1.0
  C  C311  1  0.45208000  0.22238000  0.45255000  1.0
  C  C312  1  0.22542000  0.73517000  0.18565000  1.0
  C  C313  1  0.27859000  0.72303000  0.17784000  1.0
  C  C314  1  0.29214000  0.68389000  0.14038000  1.0
  C  C315  1  0.25451000  0.65739000  0.11092000  1.0
  C  C316  1  0.20258000  0.66954000  0.11897000  1.0
  C  C317  1  0.18694000  0.70826000  0.15595000  1.0
  C  C318  1  0.26920000  0.61751000  0.07208000  1.0
  C  C319  1  0.04543000  0.20373000  0.44367000  1.0
  C  C320  1  0.99628000  0.21489000  0.46385000  1.0
  C  C321  1  0.99261000  0.24751000  0.50761000  1.0
  C  C322  1  0.03721000  0.26868000  0.53136000  1.0
  C  C323  1  0.08561000  0.25819000  0.51078000  1.0
  C  C324  1  0.09015000  0.22606000  0.46690000  1.0
  C  C325  1  0.03330000  0.30194000  0.57672000  1.0
  C  C326  1  0.88643000  0.41349000  0.20037000  1.0
  C  C327  1  0.92989000  0.38925000  0.17563000  1.0
  C  C328  1  0.92122000  0.34788000  0.13972000  1.0
  C  C329  1  0.87189000  0.33294000  0.12380000  1.0
  C  C330  1  0.82952000  0.35804000  0.14626000  1.0
  C  C331  1  0.83566000  0.39676000  0.18627000  1.0
  C  C332  1  0.86473000  0.29128000  0.08457000  1.0
  C  C333  1  0.70592000  0.18839000  0.77202000  1.0
  C  C334  1  0.65289000  0.18110000  0.76121000  1.0
  C  C335  1  0.63764000  0.15694000  0.71760000  1.0
  C  C336  1  0.67415000  0.14166000  0.68438000  1.0
  C  C337  1  0.72645000  0.14999000  0.69494000  1.0
  C  C338  1  0.74330000  0.17224000  0.73865000  1.0
  C  C339  1  0.65799000  0.11691000  0.63936000  1.0
  C  C340  1  0.54661000  0.76183000  0.56039000  1.0
  C  C341  1  0.50586000  0.76923000  0.53798000  1.0
  C  C342  1  0.51802000  0.77106000  0.50026000  1.0
  C  C343  1  0.56910000  0.76926000  0.48669000  1.0
  C  C344  1  0.60909000  0.76282000  0.50935000  1.0
  C  C345  1  0.59868000  0.75876000  0.54592000  1.0
  C  C346  1  0.58054000  0.77757000  0.45150000  1.0
  C  C347  1  0.37504000  0.53182000  0.76183000  1.0
  C  C348  1  0.42785000  0.54115000  0.75791000  1.0
  C  C349  1  0.43919000  0.56549000  0.73747000  1.0
  C  C350  1  0.40028000  0.58376000  0.72474000  1.0
  C  C351  1  0.34896000  0.57512000  0.72916000  1.0
  C  C352  1  0.33540000  0.54752000  0.74540000  1.0
  C  C353  1  0.41307000  0.61143000  0.70687000  1.0
  C  C354  1  0.05894000  0.60110000  0.93984000  1.0
  C  C355  1  0.05370000  0.58820000  0.97122000  1.0
  C  C356  1  0.08091000  0.55158000  0.96599000  1.0
  C  C357  1  0.11392000  0.52861000  0.93051000  1.0
  C  C358  1  0.11973000  0.54224000  0.90001000  1.0
  C  C359  1  0.09222000  0.57840000  0.90432000  1.0
  C  C360  1  0.14198000  0.49105000  0.92543000  1.0
  C  C361  1  0.93482000  0.93514000  0.26504000  1.0
  C  C362  1  0.94287000  0.97978000  0.29250000  1.0
  C  C363  1  0.99324000  0.99676000  0.29855000  1.0
  C  C364  1  0.03544000  0.96956000  0.27785000  1.0
  C  C365  1  0.02742000  0.92485000  0.25138000  1.0
  C  C366  1  0.97733000  0.90728000  0.24502000  1.0
  C  C367  1  0.08715000  0.98745000  0.28456000  1.0
  C  C368  1  0.75536000  0.30558000  0.36973000  1.0
  C  C369  1  0.77057000  0.29507000  0.40122000  1.0
  C  C370  1  0.78376000  0.32858000  0.44312000  1.0
  C  C371  1  0.78214000  0.37214000  0.45352000  1.0
  C  C372  1  0.76797000  0.38236000  0.42164000  1.0
  C  C373  1  0.75474000  0.34931000  0.37954000  1.0
  C  C374  1  0.79565000  0.40637000  0.49685000  1.0
  C  C375  1  0.57932000  0.28614000  0.03966000  1.0
  C  C376  1  0.58680000  0.29136000  0.00331000  1.0
  C  C377  1  0.63694000  0.29285000  0.98910000  1.0
  C  C378  1  0.67921000  0.28219000  0.00626000  1.0
  C  C379  1  0.67139000  0.27406000  0.04046000  1.0
  C  C380  1  0.62219000  0.28035000  0.06028000  1.0
  C  C381  1  0.73077000  0.28088000  0.98967000  1.0
  C  C382  1  0.38680000  0.02831000  0.68381000  1.0
  C  C383  1  0.38537000  0.99727000  0.63939000  1.0
  C  C384  1  0.41651000  0.00262000  0.60990000  1.0
  C  C385  1  0.45087000  0.03755000  0.62485000  1.0
  C  C386  1  0.45420000  0.06693000  0.66945000  1.0
  C  C387  1  0.42207000  0.06253000  0.69900000  1.0
  C  C388  1  0.48373000  0.04259000  0.59464000  1.0
  C  C389  1  0.22027000  0.66367000  0.63049000  1.0
  C  C390  1  0.21249000  0.61948000  0.61699000  1.0
  C  C391  1  0.23564000  0.58734000  0.57836000  1.0
  C  C392  1  0.26746000  0.59883000  0.55391000  1.0
  C  C393  1  0.27671000  0.64277000  0.56840000  1.0
  C  C394  1  0.25346000  0.67544000  0.60670000  1.0
  C  C395  1  0.29157000  0.56548000  0.51441000  1.0
  C  C396  1  0.01533000  0.27843000  0.94562000  1.0
  C  C397  1  0.01830000  0.31986000  0.98282000  1.0
  C  C398  1  0.97545000  0.34773000  0.99425000  1.0
  C  C399  1  0.92907000  0.33394000  0.97123000  1.0
  C  C400  1  0.92638000  0.29276000  0.93432000  1.0
  C  C401  1  0.96987000  0.26526000  0.92024000  1.0
  C  C402  1  0.88449000  0.36246000  0.98501000  1.0
  C  C403  1  0.85472000  0.92851000  0.65390000  1.0
  C  C404  1  0.87170000  0.95415000  0.63660000  1.0
  C  C405  1  0.87902000  0.93565000  0.59151000  1.0
  C  C406  1  0.86787000  0.89189000  0.56343000  1.0
  C  C407  1  0.84851000  0.86698000  0.58064000  1.0
  C  C408  1  0.84209000  0.88514000  0.62584000  1.0
  C  C409  1  0.87564000  0.87274000  0.51702000  1.0
  C  C410  1  0.68871000  0.60657000  0.67118000  1.0
  C  C411  1  0.68710000  0.59728000  0.62792000  1.0
  C  C412  1  0.65738000  0.56238000  0.59697000  1.0
  C  C413  1  0.62917000  0.53662000  0.60912000  1.0
  C  C414  1  0.63036000  0.54647000  0.65246000  1.0
  C  C415  1  0.65971000  0.58183000  0.68364000  1.0
  C  C416  1  0.59834000  0.50067000  0.57741000  1.0
  C  C417  1  0.54027000  0.69046000  0.04610000  1.0
  C  C418  1  0.52002000  0.71062000  0.08819000  1.0
  C  C419  1  0.50325000  0.68440000  0.10530000  1.0
  C  C420  1  0.50656000  0.63904000  0.08124000  1.0
  C  C421  1  0.52520000  0.61918000  0.03876000  1.0
  C  C422  1  0.54145000  0.64469000  0.02115000  1.0
  C  C423  1  0.48871000  0.61294000  0.09956000  1.0
  C  C424  1  0.34818000  0.02210000  0.36523000  1.0
  C  C425  1  0.32747000  0.06250000  0.39489000  1.0
  C  C426  1  0.31075000  0.07049000  0.43590000  1.0
  C  C427  1  0.31463000  0.03808000  0.44721000  1.0
  C  C428  1  0.33428000  0.99723000  0.41692000  1.0
  C  C429  1  0.35074000  0.98895000  0.37570000  1.0
  C  C430  1  0.29802000  0.04660000  0.48970000  1.0
  C  C431  1  0.18120000  0.30184000  0.27746000  1.0
  C  C432  1  0.14098000  0.31049000  0.25639000  1.0
  C  C433  1  0.09882000  0.33634000  0.28106000  1.0
  C  C434  1  0.09776000  0.35489000  0.32616000  1.0
  C  C435  1  0.13809000  0.34638000  0.34685000  1.0
  C  C436  1  0.17903000  0.31863000  0.32263000  1.0
  C  C437  1  0.05504000  0.38245000  0.35124000  1.0
  C  C438  1  0.04748000  0.55987000  0.17938000  1.0
  C  C439  1  0.02119000  0.59973000  0.20211000  1.0
  C  C440  1  0.01744000  0.62012000  0.24762000  1.0
  C  C441  1  0.04001000  0.60107000  0.27005000  1.0
  C  C442  1  0.06648000  0.56143000  0.24690000  1.0
  C  C443  1  0.07033000  0.54057000  0.20142000  1.0
  C  C444  1  0.03635000  0.62236000  0.31697000  1.0
  C  C445  1  0.89035000  0.12918000  0.56981000  1.0
  C  C446  1  0.91489000  0.10651000  0.58796000  1.0
  C  C447  1  0.90971000  0.06100000  0.56747000  1.0
  C  C448  1  0.87425000  0.03900000  0.53376000  1.0
  C  C449  1  0.84650000  0.06218000  0.51831000  1.0
  C  C450  1  0.85620000  0.10656000  0.53442000  1.0
  C  C451  1  0.86615000  0.99270000  0.51520000  1.0
  C  C452  1  0.72692000  0.58041000  0.38979000  1.0
  C  C453  1  0.69373000  0.56054000  0.35373000  1.0
  C  C454  1  0.66114000  0.58666000  0.34467000  1.0
  C  C455  1  0.65956000  0.63176000  0.37269000  1.0
  C  C456  1  0.69216000  0.65110000  0.40913000  1.0
  C  C457  1  0.72572000  0.62529000  0.41763000  1.0
  C  C458  1  0.61999000  0.65711000  0.36689000  1.0
  C  C459  1  0.54016000  0.39260000  0.84541000  1.0
  C  C460  1  0.53020000  0.37160000  0.86954000  1.0
  C  C461  1  0.54920000  0.38995000  0.91210000  1.0
  C  C462  1  0.58408000  0.42445000  0.92837000  1.0
  C  C463  1  0.59607000  0.44371000  0.90353000  1.0
  C  C464  1  0.57289000  0.42933000  0.86275000  1.0
  C  C465  1  0.60557000  0.44154000  0.97156000  1.0
  C  C466  1  0.36484000  0.77730000  0.39375000  1.0
  C  C467  1  0.40125000  0.75958000  0.35967000  1.0
  C  C468  1  0.43110000  0.72379000  0.35343000  1.0
  C  C469  1  0.42337000  0.70501000  0.37969000  1.0
  C  C470  1  0.38488000  0.72168000  0.41187000  1.0
  C  C471  1  0.35668000  0.75852000  0.41973000  1.0
  C  C472  1  0.45726000  0.67064000  0.37568000  1.0
  C  C473  1  0.19971000  0.38419000  0.57414000  1.0
  C  C474  1  0.16708000  0.39620000  0.61051000  1.0
  C  C475  1  0.16771000  0.37112000  0.63077000  1.0
  C  C476  1  0.20171000  0.33588000  0.61631000  1.0
  C  C477  1  0.23454000  0.32471000  0.58098000  1.0
  C  C478  1  0.23381000  0.34850000  0.55943000  1.0
  C  C479  1  0.20503000  0.31232000  0.63921000  1.0
  C  C480  1  0.79815000  0.71894000  0.98639000  1.0
  C  C481  1  0.80663000  0.72767000  0.02975000  1.0
  C  C482  1  0.77667000  0.70605000  0.04593000  1.0
  C  C483  1  0.75035000  0.66850000  0.01749000  1.0
  C  C484  1  0.74757000  0.65666000  0.97380000  1.0
  C  C485  1  0.76439000  0.68458000  0.95881000  1.0
  C  C486  1  0.72759000  0.64137000  0.03295000  1.0
  C  C487  1  0.63367000  0.99988000  0.26651000  1.0
  C  C488  1  0.59598000  0.98513000  0.28531000  1.0
  C  C489  1  0.57691000  0.01550000  0.32697000  1.0
  C  C490  1  0.58056000  0.05973000  0.34276000  1.0
  C  C491  1  0.61034000  0.07449000  0.32027000  1.0
  C  C492  1  0.64354000  0.04555000  0.28652000  1.0
  C  C493  1  0.55415000  0.08970000  0.38257000  1.0
  C  C494  1  0.47761000  0.22741000  0.26681000  1.0
  C  C495  1  0.46155000  0.20650000  0.29025000  1.0
  C  C496  1  0.48927000  0.21419000  0.32754000  1.0
  C  C497  1  0.52400000  0.24821000  0.34713000  1.0
  C  C498  1  0.53707000  0.27060000  0.32598000  1.0
  C  C499  1  0.51913000  0.25745000  0.28342000  1.0
  C  C500  1  0.54486000  0.26145000  0.38986000  1.0
  C  C501  1  0.30077000  0.20898000  0.97966000  1.0
  C  C502  1  0.33003000  0.17246000  0.95133000  1.0
  C  C503  1  0.33714000  0.13865000  0.96026000  1.0
  C  C504  1  0.31501000  0.14151000  0.99777000  1.0
  C  C505  1  0.28705000  0.17894000  0.02677000  1.0
  C  C506  1  0.27995000  0.21290000  0.01781000  1.0
  C  C507  1  0.32235000  0.10667000  0.00722000  1.0
  C  C508  1  0.11876000  0.97363000  0.72689000  1.0
  C  C509  1  0.13538000  0.93669000  0.72871000  1.0
  C  C510  1  0.12295000  0.93314000  0.76521000  1.0
  C  C511  1  0.09601000  0.96672000  0.80030000  1.0
  C  C512  1  0.08062000  0.00379000  0.79857000  1.0
  C  C513  1  0.09099000  0.00721000  0.76162000  1.0
  C  C514  1  0.08407000  0.96313000  0.83821000  1.0
  C  C515  1  0.95201000  0.71657000  0.74500000  1.0
  C  C516  1  0.97179000  0.71740000  0.78225000  1.0
  C  C517  1  0.96219000  0.75369000  0.82322000  1.0
  C  C518  1  0.93434000  0.78941000  0.82676000  1.0
  C  C519  1  0.91527000  0.78837000  0.78911000  1.0
  C  C520  1  0.92357000  0.75169000  0.74820000  1.0
  C  C521  1  0.92529000  0.82714000  0.86909000  1.0
  C  C522  1  0.71810000  0.76290000  0.23744000  1.0
  C  C523  1  0.67381000  0.76341000  0.26165000  1.0
  C  C524  1  0.67752000  0.74390000  0.28762000  1.0
  C  C525  1  0.72367000  0.72437000  0.28971000  1.0
  C  C526  1  0.76661000  0.72393000  0.26560000  1.0
  C  C527  1  0.76457000  0.74260000  0.23883000  1.0
  C  C528  1  0.72706000  0.70376000  0.31599000  1.0
  C  C529  1  0.54930000  0.20404000  0.45177000  1.0
  C  C530  1  0.50257000  0.22383000  0.47501000  1.0
  C  C531  1  0.50408000  0.24511000  0.52057000  1.0
  C  C532  1  0.54948000  0.24587000  0.54268000  1.0
  C  C533  1  0.59470000  0.22552000  0.51942000  1.0
  C  C534  1  0.59598000  0.20478000  0.47389000  1.0
  C  C535  1  0.54964000  0.26767000  0.58972000  1.0
  C  C536  1  0.38821000  0.42087000  0.22552000  1.0
  C  C537  1  0.34136000  0.44299000  0.22772000  1.0
  C  C538  1  0.34085000  0.48863000  0.25159000  1.0
  C  C539  1  0.38514000  0.51222000  0.27244000  1.0
  C  C540  1  0.43109000  0.49040000  0.27005000  1.0
  C  C541  1  0.43379000  0.44461000  0.24676000  1.0
  C  C542  1  0.38333000  0.55923000  0.29587000  1.0
  C  C543  1  0.20200000  0.22162000  0.78409000  1.0
  C  C544  1  0.15912000  0.21929000  0.75847000  1.0
  C  C545  1  0.15916000  0.24501000  0.73872000  1.0
  C  C546  1  0.20084000  0.27234000  0.74427000  1.0
  C  C547  1  0.24281000  0.27505000  0.77021000  1.0
  C  C548  1  0.24467000  0.24888000  0.78923000  1.0
  C  C549  1  0.20303000  0.29425000  0.71964000  1.0
  C  C550  1  0.03485000  0.77303000  0.54083000  1.0
  C  C551  1  0.07670000  0.78203000  0.52084000  1.0
  C  C552  1  0.06804000  0.78025000  0.48086000  1.0
  C  C553  1  0.01941000  0.76882000  0.46064000  1.0
  C  C554  1  0.97863000  0.75910000  0.48038000  1.0
  C  C555  1  0.98560000  0.76151000  0.52068000  1.0
  C  C556  1  0.01134000  0.76692000  0.41936000  1.0
  C  C557  1  0.87461000  0.50866000  0.78108000  1.0
  C  C558  1  0.92144000  0.48604000  0.76145000  1.0
  C  C559  1  0.92324000  0.44140000  0.74710000  1.0
  C  C560  1  0.88055000  0.41997000  0.75265000  1.0
  C  C561  1  0.83457000  0.44282000  0.77198000  1.0
  C  C562  1  0.83022000  0.48723000  0.78590000  1.0
  C  C563  1  0.88372000  0.37390000  0.73772000  1.0
  O  O564  1  0.94699000  0.68325000  0.22276000  1.0
  O  O565  1  0.93784000  0.75843000  0.20173000  1.0
  O  O566  1  0.00031000  0.69006000  0.14717000  1.0
  O  O567  1  0.01453000  0.60371000  0.13667000  1.0
  O  O568  1  0.96731000  0.76202000  0.12122000  1.0
  O  O569  1  0.89295000  0.71364000  0.03605000  1.0
  O  O570  1  0.05151000  0.75935000  0.23132000  1.0
  O  O571  1  0.08768000  0.76591000  0.14473000  1.0
  O  O572  1  0.85171000  0.77273000  0.09769000  1.0
  O  O573  1  0.84792000  0.80290000  0.12654000  1.0
  O  O574  1  0.82239000  0.79789000  0.19873000  1.0
  O  O575  1  0.01710000  0.59929000  0.03828000  1.0
  O  O576  1  0.00828000  0.65544000  0.02162000  1.0
  O  O577  1  0.96649000  0.65499000  0.19921000  1.0
  O  O578  1  0.09998000  0.66819000  0.07117000  1.0
  O  O579  1  0.92277000  0.84542000  0.20241000  1.0
  O  O580  1  0.01123000  0.83457000  0.21313000  1.0
  O  O581  1  0.89229000  0.61746000  0.12772000  1.0
  O  O582  1  0.97786000  0.66754000  0.11469000  1.0
  O  O583  1  0.88007000  0.70569000  0.12041000  1.0
  O  O584  1  0.84200000  0.70464000  0.20297000  1.0
  O  O585  1  0.82130000  0.76911000  0.19956000  1.0
  O  O586  1  0.00485000  0.69333000  0.11842000  1.0
  O  O587  1  0.00752000  0.68939000  0.02925000  1.0
  O  O588  1  0.91411000  0.62455000  0.03180000  1.0
  O  O589  1  0.10410000  0.74575000  0.15779000  1.0
  O  O590  1  0.10462000  0.68317000  0.16443000  1.0
  O  O591  1  0.11963000  0.58662000  0.08135000  1.0
  O  O592  1  0.76328000  0.15406000  0.50816000  1.0
  O  O593  1  0.77729000  0.17791000  0.42644000  1.0
  O  O594  1  0.82426000  0.16016000  0.43768000  1.0
  O  O595  1  0.88197000  0.10563000  0.47076000  1.0
  O  O596  1  0.80190000  0.12115000  0.33300000  1.0
  O  O597  1  0.73679000  0.04559000  0.27190000  1.0
  O  O598  1  0.87327000  0.24054000  0.43753000  1.0
  O  O599  1  0.89447000  0.18106000  0.33676000  1.0
  O  O600  1  0.68909000  0.10972000  0.29691000  1.0
  O  O601  1  0.68796000  0.14185000  0.30438000  1.0
  O  O602  1  0.65550000  0.18962000  0.38731000  1.0
  O  O603  1  0.91300000  0.03594000  0.35995000  1.0
  O  O604  1  0.85704000  0.01136000  0.30016000  1.0
  O  O605  1  0.79673000  0.13437000  0.50022000  1.0
  O  O606  1  0.95767000  0.11519000  0.39475000  1.0
  O  O607  1  0.74644000  0.21813000  0.36268000  1.0
  O  O608  1  0.81509000  0.24145000  0.40983000  1.0
  O  O609  1  0.69986000  0.07379000  0.44245000  1.0
  O  O610  1  0.80545000  0.06907000  0.39877000  1.0
  O  O611  1  0.71853000  0.09776000  0.37025000  1.0
  O  O612  1  0.68141000  0.17142000  0.46914000  1.0
  O  O613  1  0.65467000  0.18140000  0.41073000  1.0
  O  O614  1  0.85233000  0.10280000  0.34516000  1.0
  O  O615  1  0.77482000  0.03246000  0.26148000  1.0
  O  O616  1  0.74218000  0.99671000  0.32456000  1.0
  O  O617  1  0.90832000  0.21273000  0.43776000  1.0
  O  O618  1  0.94938000  0.14715000  0.41774000  1.0
  O  O619  1  0.91327000  0.08724000  0.45189000  1.0
  O  O620  1  0.62843000  0.48630000  0.26899000  1.0
  O  O621  1  0.60883000  0.38729000  0.20618000  1.0
  O  O622  1  0.68699000  0.40768000  0.26437000  1.0
  O  O623  1  0.71603000  0.49074000  0.34404000  1.0
  O  O624  1  0.64239000  0.30781000  0.20960000  1.0
  O  O625  1  0.59583000  0.28752000  0.27716000  1.0
  O  O626  1  0.70829000  0.40041000  0.17360000  1.0
  O  O627  1  0.75958000  0.31809000  0.18488000  1.0
  O  O628  1  0.52975000  0.28396000  0.22844000  1.0
  O  O629  1  0.51913000  0.27595000  0.19549000  1.0
  O  O630  1  0.48741000  0.34801000  0.19052000  1.0
  O  O631  1  0.74079000  0.40214000  0.35615000  1.0
  O  O632  1  0.71948000  0.32825000  0.30817000  1.0
  O  O633  1  0.65188000  0.49504000  0.29716000  1.0
  O  O634  1  0.80454000  0.36321000  0.27114000  1.0
  O  O635  1  0.57697000  0.29697000  0.12876000  1.0
  O  O636  1  0.66592000  0.31151000  0.12585000  1.0
  O  O637  1  0.59601000  0.47107000  0.35132000  1.0
  O  O638  1  0.67467000  0.40423000  0.29353000  1.0
  O  O639  1  0.57076000  0.37194000  0.27554000  1.0
  O  O640  1  0.52232000  0.44971000  0.27101000  1.0
  O  O641  1  0.49116000  0.37913000  0.21713000  1.0
  O  O642  1  0.69691000  0.37890000  0.26511000  1.0
  O  O643  1  0.71059000  0.29975000  0.27754000  1.0
  O  O644  1  0.63292000  0.37634000  0.35503000  1.0
  O  O645  1  0.74176000  0.40289000  0.19100000  1.0
  O  O646  1  0.78934000  0.44118000  0.25536000  1.0
  O  O647  1  0.83185000  0.45631000  0.34423000  1.0
  O  O648  1  0.42541000  0.30679000  0.80137000  1.0
  O  O649  1  0.41543000  0.20978000  0.79297000  1.0
  O  O650  1  0.49905000  0.25430000  0.82732000  1.0
  O  O651  1  0.49617000  0.30371000  0.86543000  1.0
  O  O652  1  0.45553000  0.17981000  0.85203000  1.0
  O  O653  1  0.40464000  0.19853000  0.93523000  1.0
  O  O654  1  0.50564000  0.17581000  0.72949000  1.0
  O  O655  1  0.55744000  0.14101000  0.79157000  1.0
  O  O656  1  0.34265000  0.16406000  0.87907000  1.0
  O  O657  1  0.32785000  0.14385000  0.84842000  1.0
  O  O658  1  0.29717000  0.17430000  0.79948000  1.0
  O  O659  1  0.54601000  0.30682000  0.95251000  1.0
  O  O660  1  0.51269000  0.25308000  0.96176000  1.0
  O  O661  1  0.45277000  0.32767000  0.82941000  1.0
  O  O662  1  0.62375000  0.23388000  0.89338000  1.0
  O  O663  1  0.38151000  0.11480000  0.76533000  1.0
  O  O664  1  0.47032000  0.11205000  0.76017000  1.0
  O  O665  1  0.39298000  0.34657000  0.90213000  1.0
  O  O666  1  0.47490000  0.29201000  0.89876000  1.0
  O  O667  1  0.37672000  0.24694000  0.88033000  1.0
  O  O668  1  0.32967000  0.27644000  0.81967000  1.0
  O  O669  1  0.30159000  0.20700000  0.80836000  1.0
  O  O670  1  0.50493000  0.20612000  0.86652000  1.0
  O  O671  1  0.49504000  0.22319000  0.95382000  1.0
  O  O672  1  0.40699000  0.29804000  0.97742000  1.0
  O  O673  1  0.57849000  0.16749000  0.79346000  1.0
  O  O674  1  0.59760000  0.23713000  0.81392000  1.0
  O  O675  1  0.60677000  0.31998000  0.88849000  1.0
  O  O676  1  0.25112000  0.74169000  0.47155000  1.0
  O  O677  1  0.27221000  0.76891000  0.56791000  1.0
  O  O678  1  0.32826000  0.79007000  0.54997000  1.0
  O  O679  1  0.34320000  0.82392000  0.48966000  1.0
  O  O680  1  0.28135000  0.83387000  0.66024000  1.0
  O  O681  1  0.21255000  0.92367000  0.68847000  1.0
  O  O682  1  0.40072000  0.74160000  0.57540000  1.0
  O  O683  1  0.38755000  0.80464000  0.67465000  1.0
  O  O684  1  0.16682000  0.86146000  0.67937000  1.0
  O  O685  1  0.16006000  0.83103000  0.67611000  1.0
  O  O686  1  0.14793000  0.76350000  0.58673000  1.0
  O  O687  1  0.38016000  0.92169000  0.59140000  1.0
  O  O688  1  0.31982000  0.95335000  0.64941000  1.0
  O  O689  1  0.28919000  0.76275000  0.46944000  1.0
  O  O690  1  0.43969000  0.84850000  0.54994000  1.0
  O  O691  1  0.22345000  0.74884000  0.63419000  1.0
  O  O692  1  0.30922000  0.73005000  0.60845000  1.0
  O  O693  1  0.23997000  0.84455000  0.50239000  1.0
  O  O694  1  0.27339000  0.87156000  0.58574000  1.0
  O  O695  1  0.22804000  0.85690000  0.60278000  1.0
  O  O696  1  0.16512000  0.80549000  0.52328000  1.0
  O  O697  1  0.14237000  0.78181000  0.57184000  1.0
  O  O698  1  0.36518000  0.86078000  0.62900000  1.0
  O  O699  1  0.32612000  0.92491000  0.72335000  1.0
  O  O700  1  0.28311000  0.95988000  0.66499000  1.0
  O  O701  1  0.42219000  0.76569000  0.57292000  1.0
  O  O702  1  0.43778000  0.82092000  0.55326000  1.0
  O  O703  1  0.34788000  0.85797000  0.50619000  1.0
  O  O704  1  0.06683000  0.44691000  0.68150000  1.0
  O  O705  1  0.09816000  0.54143000  0.76509000  1.0
  O  O706  1  0.14136000  0.52378000  0.73034000  1.0
  O  O707  1  0.16048000  0.47026000  0.62557000  1.0
  O  O708  1  0.11288000  0.63477000  0.80035000  1.0
  O  O709  1  0.04194000  0.67016000  0.74578000  1.0
  O  O710  1  0.22371000  0.53879000  0.79543000  1.0
  O  O711  1  0.22034000  0.64165000  0.83834000  1.0
  O  O712  1  0.00386000  0.66573000  0.80457000  1.0
  O  O713  1  0.99790000  0.66122000  0.83170000  1.0
  O  O714  1  0.96279000  0.58457000  0.79746000  1.0
  O  O715  1  0.20745000  0.57169000  0.64514000  1.0
  O  O716  1  0.14655000  0.62935000  0.67150000  1.0
  O  O717  1  0.10193000  0.44819000  0.66082000  1.0
  O  O718  1  0.25742000  0.51283000  0.66705000  1.0
  O  O719  1  0.05752000  0.60769000  0.86084000  1.0
  O  O720  1  0.14132000  0.57805000  0.84748000  1.0
  O  O721  1  0.00657000  0.49896000  0.64476000  1.0
  O  O722  1  0.10027000  0.56298000  0.68339000  1.0
  O  O723  1  0.04556000  0.58753000  0.72624000  1.0
  O  O724  1  0.00461000  0.48693000  0.72716000  1.0
  O  O725  1  0.97075000  0.55337000  0.78033000  1.0
  O  O726  1  0.19106000  0.60095000  0.73889000  1.0
  O  O727  1  0.15705000  0.69802000  0.77394000  1.0
  O  O728  1  0.10865000  0.64364000  0.68056000  1.0
  O  O729  1  0.24828000  0.54446000  0.77409000  1.0
  O  O730  1  0.26053000  0.52456000  0.69930000  1.0
  O  O731  1  0.16928000  0.48991000  0.61197000  1.0
  O  O732  1  0.14849000  0.47854000  0.22068000  1.0
  O  O733  1  0.16331000  0.38216000  0.19334000  1.0
  O  O734  1  0.10066000  0.39420000  0.14184000  1.0
  O  O735  1  0.08677000  0.47416000  0.13432000  1.0
  O  O736  1  0.14853000  0.29759000  0.10726000  1.0
  O  O737  1  0.21990000  0.27070000  0.02965000  1.0
  O  O738  1  0.04914000  0.38461000  0.21854000  1.0
  O  O739  1  0.02973000  0.29661000  0.11969000  1.0
  O  O740  1  0.25816000  0.26894000  0.09206000  1.0
  O  O741  1  0.27124000  0.27322000  0.12134000  1.0
  O  O742  1  0.28445000  0.34883000  0.19422000  1.0
  O  O743  1  0.07221000  0.37742000  0.03619000  1.0
  O  O744  1  0.09232000  0.30570000  0.01627000  1.0
  O  O745  1  0.12945000  0.48450000  0.19781000  1.0
  O  O746  1  0.99132000  0.35111000  0.07915000  1.0
  O  O747  1  0.19271000  0.30081000  0.19586000  1.0
  O  O748  1  0.10209000  0.30362000  0.19314000  1.0
  O  O749  1  0.20238000  0.45758000  0.12665000  1.0
  O  O750  1  0.12082000  0.39022000  0.11173000  1.0
  O  O751  1  0.22417000  0.36101000  0.11314000  1.0
  O  O752  1  0.25793000  0.44443000  0.19813000  1.0
  O  O753  1  0.28507000  0.37722000  0.19244000  1.0
  O  O754  1  0.09498000  0.36466000  0.11096000  1.0
  O  O755  1  0.20550000  0.27949000  0.00840000  1.0
  O  O756  1  0.18124000  0.36563000  0.03061000  1.0
  O  O757  1  0.01976000  0.38565000  0.19796000  1.0
  O  O758  1  0.00022000  0.43290000  0.17161000  1.0
  O  O759  1  0.97473000  0.44320000  0.09058000  1.0
  O  O760  1  0.99709000  0.19146000  0.67435000  1.0
  O  O761  1  0.99506000  0.18862000  0.77037000  1.0
  O  O762  1  0.91986000  0.15556000  0.70876000  1.0
  O  O763  1  0.93454000  0.11659000  0.66029000  1.0
  O  O764  1  0.94504000  0.12494000  0.78397000  1.0
  O  O765  1  0.03692000  0.02768000  0.72035000  1.0
  O  O766  1  0.90094000  0.24960000  0.78894000  1.0
  O  O767  1  0.88399000  0.20500000  0.84636000  1.0
  O  O768  1  0.06108000  0.08255000  0.79119000  1.0
  O  O769  1  0.04002000  0.17822000  0.86199000  1.0
  O  O770  1  0.11305000  0.15978000  0.79840000  1.0
  O  O771  1  0.88177000  0.02535000  0.64743000  1.0
  O  O772  1  0.89787000  0.01522000  0.70429000  1.0
  O  O773  1  0.97970000  0.15734000  0.64311000  1.0
  O  O774  1  0.78822000  0.07816000  0.70085000  1.0
  O  O775  1  0.01253000  0.20090000  0.86161000  1.0
  O  O776  1  0.92380000  0.21564000  0.85409000  1.0
  O  O777  1  0.04405000  0.09504000  0.63220000  1.0
  O  O778  1  0.95128000  0.08341000  0.67110000  1.0
  O  O779  1  0.03150000  0.10197000  0.72453000  1.0
  O  O780  1  0.08311000  0.18197000  0.71819000  1.0
  O  O781  1  0.10611000  0.17501000  0.77975000  1.0
  O  O782  1  0.89614000  0.10999000  0.75032000  1.0
  O  O783  1  0.96566000  0.04787000  0.77591000  1.0
  O  O784  1  0.01163000  0.00572000  0.67785000  1.0
  O  O785  1  0.82211000  0.17927000  0.78125000  1.0
  O  O786  1  0.83021000  0.16478000  0.71362000  1.0
  O  O787  1  0.83000000  0.08869000  0.62370000  1.0
  O  O788  1  0.83105000  0.67322000  0.46716000  1.0
  O  O789  1  0.81737000  0.75472000  0.57335000  1.0
  O  O790  1  0.77103000  0.72492000  0.55370000  1.0
  O  O791  1  0.71667000  0.63843000  0.49000000  1.0
  O  O792  1  0.80279000  0.75496000  0.65602000  1.0
  O  O793  1  0.86219000  0.71505000  0.69254000  1.0
  O  O794  1  0.71315000  0.81311000  0.59213000  1.0
  O  O795  1  0.70548000  0.81622000  0.68241000  1.0
  O  O796  1  0.91069000  0.77171000  0.69135000  1.0
  O  O797  1  0.92655000  0.79475000  0.68544000  1.0
  O  O798  1  0.94360000  0.79696000  0.61767000  1.0
  O  O799  1  0.69786000  0.62775000  0.58232000  1.0
  O  O800  1  0.75685000  0.64760000  0.64062000  1.0
  O  O801  1  0.79614000  0.65987000  0.46972000  1.0
  O  O802  1  0.64312000  0.69352000  0.58160000  1.0
  O  O803  1  0.85087000  0.84421000  0.66214000  1.0
  O  O804  1  0.77848000  0.83667000  0.62214000  1.0
  O  O805  1  0.90088000  0.62767000  0.50133000  1.0
  O  O806  1  0.80007000  0.64790000  0.55590000  1.0
  O  O807  1  0.88613000  0.70410000  0.59690000  1.0
  O  O808  1  0.90643000  0.72284000  0.51593000  1.0
  O  O809  1  0.93860000  0.77367000  0.58584000  1.0
  O  O810  1  0.75065000  0.72051000  0.63179000  1.0
  O  O811  1  0.78073000  0.66546000  0.66861000  1.0
  O  O812  1  0.87597000  0.62393000  0.60852000  1.0
  O  O813  1  0.68288000  0.78067000  0.58115000  1.0
  O  O814  1  0.64768000  0.71562000  0.57084000  1.0
  O  O815  1  0.69313000  0.62329000  0.50284000  1.0
  O  O816  1  0.62617000  0.45803000  0.79207000  1.0
  O  O817  1  0.65572000  0.53971000  0.78338000  1.0
  O  O818  1  0.57669000  0.55094000  0.83839000  1.0
  O  O819  1  0.53603000  0.49346000  0.87250000  1.0
  O  O820  1  0.63266000  0.63536000  0.83969000  1.0
  O  O821  1  0.68346000  0.68987000  0.93224000  1.0
  O  O822  1  0.55421000  0.51618000  0.73954000  1.0
  O  O823  1  0.51465000  0.62136000  0.80743000  1.0
  O  O824  1  0.74933000  0.65839000  0.87947000  1.0
  O  O825  1  0.75567000  0.65735000  0.84594000  1.0
  O  O826  1  0.78092000  0.57036000  0.78919000  1.0
  O  O827  1  0.51883000  0.59658000  0.94788000  1.0
  O  O828  1  0.60123000  0.63313000  0.96468000  1.0
  O  O829  1  0.60536000  0.46254000  0.82057000  1.0
  O  O830  1  0.46356000  0.61312000  0.87944000  1.0
  O  O831  1  0.69782000  0.60194000  0.75407000  1.0
  O  O832  1  0.60773000  0.58925000  0.74016000  1.0
  O  O833  1  0.66495000  0.51630000  0.89584000  1.0
  O  O834  1  0.58936000  0.56812000  0.87350000  1.0
  O  O835  1  0.69489000  0.58877000  0.87318000  1.0
  O  O836  1  0.73974000  0.49383000  0.81418000  1.0
  O  O837  1  0.77424000  0.54816000  0.79970000  1.0
  O  O838  1  0.56829000  0.58553000  0.85896000  1.0
  O  O839  1  0.56037000  0.68174000  0.92703000  1.0
  O  O840  1  0.64082000  0.63316000  0.96241000  1.0
  O  O841  1  0.52027000  0.52660000  0.75777000  1.0
  O  O842  1  0.46862000  0.51691000  0.80525000  1.0
  O  O843  1  0.42580000  0.53921000  0.89471000  1.0
  O  O844  1  0.47442000  0.74470000  0.27603000  1.0
  O  O845  1  0.50441000  0.77800000  0.21251000  1.0
  O  O846  1  0.42075000  0.81583000  0.26356000  1.0
  O  O847  1  0.37671000  0.81226000  0.33964000  1.0
  O  O848  1  0.47528000  0.85913000  0.21020000  1.0
  O  O849  1  0.51992000  0.94831000  0.28037000  1.0
  O  O850  1  0.40493000  0.73192000  0.17348000  1.0
  O  O851  1  0.35983000  0.82227000  0.17668000  1.0
  O  O852  1  0.58725000  0.90234000  0.23396000  1.0
  O  O853  1  0.59998000  0.87634000  0.20254000  1.0
  O  O854  1  0.62895000  0.80277000  0.20412000  1.0
  O  O855  1  0.36771000  0.91399000  0.35310000  1.0
  O  O856  1  0.39289000  0.94029000  0.30650000  1.0
  O  O857  1  0.44928000  0.76491000  0.30285000  1.0
  O  O858  1  0.31073000  0.87581000  0.26567000  1.0
  O  O859  1  0.54893000  0.78405000  0.13689000  1.0
  O  O860  1  0.46020000  0.76696000  0.12481000  1.0
  O  O861  1  0.50290000  0.84347000  0.35793000  1.0
  O  O862  1  0.43229000  0.84917000  0.29283000  1.0
  O  O863  1  0.53890000  0.86357000  0.28181000  1.0
  O  O864  1  0.58336000  0.78243000  0.28298000  1.0
  O  O865  1  0.62060000  0.79831000  0.23024000  1.0
  O  O866  1  0.41386000  0.84523000  0.26266000  1.0
  O  O867  1  0.40350000  0.93704000  0.27522000  1.0
  O  O868  1  0.47416000  0.93830000  0.35616000  1.0
  O  O869  1  0.36869000  0.74670000  0.18579000  1.0
  O  O870  1  0.31044000  0.78193000  0.24594000  1.0
  O  O871  1  0.26878000  0.85443000  0.33436000  1.0
  O  O872  1  0.34347000  0.29197000  0.51433000  1.0
  O  O873  1  0.31661000  0.20061000  0.42456000  1.0
  O  O874  1  0.27037000  0.23398000  0.43946000  1.0
  O  O875  1  0.24095000  0.33559000  0.48583000  1.0
  O  O876  1  0.29916000  0.15815000  0.33049000  1.0
  O  O877  1  0.37040000  0.21248000  0.29148000  1.0
  O  O878  1  0.19521000  0.16491000  0.43122000  1.0
  O  O879  1  0.19371000  0.11757000  0.32989000  1.0
  O  O880  1  0.40795000  0.15599000  0.29917000  1.0
  O  O881  1  0.41177000  0.12794000  0.30261000  1.0
  O  O882  1  0.44717000  0.16132000  0.38322000  1.0
  O  O883  1  0.19446000  0.30508000  0.38013000  1.0
  O  O884  1  0.25639000  0.27831000  0.32315000  1.0
  O  O885  1  0.30584000  0.30731000  0.51075000  1.0
  O  O886  1  0.14390000  0.28537000  0.43510000  1.0
  O  O887  1  0.35805000  0.10355000  0.36200000  1.0
  O  O888  1  0.27732000  0.11887000  0.39643000  1.0
  O  O889  1  0.39502000  0.32485000  0.45563000  1.0
  O  O890  1  0.30392000  0.27646000  0.39449000  1.0
  O  O891  1  0.36419000  0.23444000  0.37232000  1.0
  O  O892  1  0.41398000  0.24944000  0.47389000  1.0
  O  O893  1  0.44510000  0.18976000  0.41020000  1.0
  O  O894  1  0.21869000  0.21512000  0.35901000  1.0
  O  O895  1  0.25677000  0.17439000  0.26005000  1.0
  O  O896  1  0.29570000  0.27171000  0.31050000  1.0
  O  O897  1  0.17198000  0.18935000  0.43091000  1.0
  O  O898  1  0.14957000  0.25922000  0.44002000  1.0
  O  O899  1  0.23085000  0.34679000  0.46450000  1.0
  O  O900  1  0.27730000  0.62528000  0.04343000  1.0
  O  O901  1  0.26897000  0.58828000  0.07976000  1.0
  O  O902  1  0.03680000  0.28506000  0.59857000  1.0
  O  O903  1  0.02783000  0.33667000  0.57934000  1.0
  O  O904  1  0.86066000  0.26354000  0.09420000  1.0
  O  O905  1  0.86497000  0.29656000  0.05379000  1.0
  O  O906  1  0.65067000  0.14132000  0.62583000  1.0
  O  O907  1  0.65660000  0.07913000  0.62864000  1.0
  O  O908  1  0.57095000  0.74617000  0.41720000  1.0
  O  O909  1  0.59601000  0.81413000  0.46681000  1.0
  O  O910  1  0.41692000  0.58959000  0.66816000  1.0
  O  O911  1  0.41611000  0.64826000  0.73604000  1.0
  O  O912  1  0.11621000  0.45918000  0.90459000  1.0
  O  O913  1  0.18286000  0.50269000  0.94350000  1.0
  O  O914  1  0.10620000  0.98720000  0.31518000  1.0
  O  O915  1  0.09592000  0.99738000  0.25754000  1.0
  O  O916  1  0.84115000  0.41325000  0.49816000  1.0
  O  O917  1  0.75743000  0.41789000  0.51883000  1.0
  O  O918  1  0.74993000  0.31621000  0.00999000  1.0
  O  O919  1  0.73936000  0.24489000  0.96040000  1.0
  O  O920  1  0.46142000  0.06408000  0.58242000  1.0
  O  O921  1  0.52370000  0.02389000  0.59061000  1.0
  O  O922  1  0.26338000  0.55659000  0.48433000  1.0
  O  O923  1  0.33273000  0.55641000  0.52321000  1.0
  O  O924  1  0.85986000  0.35651000  0.01013000  1.0
  O  O925  1  0.88509000  0.38373000  0.96739000  1.0
  O  O926  1  0.83706000  0.87710000  0.50091000  1.0
  O  O927  1  0.91848000  0.85806000  0.50815000  1.0
  O  O928  1  0.55562000  0.51349000  0.57696000  1.0
  O  O929  1  0.62447000  0.46852000  0.56083000  1.0
  O  O930  1  0.52432000  0.60655000  0.11721000  1.0
  O  O931  1  0.44361000  0.60529000  0.09183000  1.0
  O  O932  1  0.25314000  0.03756000  0.48809000  1.0
  O  O933  1  0.33398000  0.06024000  0.51420000  1.0
  O  O934  1  0.02188000  0.36034000  0.35389000  1.0
  O  O935  1  0.06518000  0.41942000  0.36211000  1.0
  O  O936  1  0.99683000  0.61179000  0.32670000  1.0
  O  O937  1  0.07405000  0.64437000  0.33247000  1.0
  O  O938  1  0.83130000  0.98712000  0.53411000  1.0
  O  O939  1  0.89651000  0.97337000  0.48635000  1.0
  O  O940  1  0.63507000  0.67325000  0.34637000  1.0
  O  O941  1  0.58243000  0.65409000  0.38491000  1.0
  O  O942  1  0.64490000  0.42251000  0.96881000  1.0
  O  O943  1  0.57795000  0.46966000  0.99747000  1.0
  O  O944  1  0.48163000  0.68387000  0.40858000  1.0
  O  O945  1  0.45195000  0.63872000  0.34087000  1.0
  O  O946  1  0.17291000  0.28429000  0.62668000  1.0
  O  O947  1  0.24025000  0.32914000  0.66404000  1.0
  O  O948  1  0.68554000  0.65498000  0.04756000  1.0
  O  O949  1  0.75752000  0.61310000  0.02682000  1.0
  O  O950  1  0.51168000  0.09567000  0.37323000  1.0
  O  O951  1  0.58192000  0.09921000  0.41302000  1.0
  O  O952  1  0.58775000  0.24723000  0.38541000  1.0
  O  O953  1  0.51372000  0.28294000  0.41724000  1.0
  O  O954  1  0.36097000  0.11335000  0.02827000  1.0
  O  O955  1  0.28760000  0.08120000  0.99120000  1.0
  O  O956  1  0.11880000  0.97859000  0.86380000  1.0
  O  O957  1  0.04291000  0.94574000  0.83302000  1.0
  O  O958  1  0.88559000  0.82226000  0.88349000  1.0
  O  O959  1  0.96015000  0.85231000  0.87745000  1.0
  O  O960  1  0.73505000  0.73071000  0.35311000  1.0
  O  O961  1  0.72111000  0.66540000  0.29275000  1.0
  O  O962  1  0.56180000  0.30489000  0.60382000  1.0
  O  O963  1  0.53757000  0.24222000  0.60098000  1.0
  O  O964  1  0.37339000  0.57195000  0.33328000  1.0
  O  O965  1  0.39210000  0.57167000  0.27076000  1.0
  O  O966  1  0.18233000  0.32908000  0.73719000  1.0
  O  O967  1  0.22634000  0.26859000  0.68787000  1.0
  O  O968  1  0.02039000  0.73085000  0.39048000  1.0
  O  O969  1  0.99788000  0.80200000  0.42599000  1.0
  O  O970  1  0.86950000  0.35386000  0.70069000  1.0
  O  O971  1  0.89969000  0.36912000  0.76673000  1.0
