# generated using pymatgen
data_Zn3H19C30(NO2)6
_symmetry_space_group_name_H-M   'P 1'
_cell_length_a   28.60390000
_cell_length_b   33.03700064
_cell_length_c   33.03750000
_cell_angle_alpha   60.00050000
_cell_angle_beta   90.00000000
_cell_angle_gamma   90.00000000
_symmetry_Int_Tables_number   1
_chemical_formula_structural   Zn3H19C30(NO2)6
_chemical_formula_sum   'Zn36 H228 C360 N72 O144'
_cell_volume   27037.45805603
_cell_formula_units_Z   12
loop_
 _symmetry_equiv_pos_site_id
 _symmetry_equiv_pos_as_xyz
  1  'x, y, z'
loop_
 _atom_site_type_symbol
 _atom_site_label
 _atom_site_symmetry_multiplicity
 _atom_site_fract_x
 _atom_site_fract_y
 _atom_site_fract_z
 _atom_site_occupancy
  Zn  Zn0  1  0.94976000  0.51866000  0.06447000  1.0
  Zn  Zn1  1  0.90156000  0.46160000  0.24230000  1.0
  Zn  Zn2  1  0.88812000  0.44466000  0.15442000  1.0
  Zn  Zn3  1  0.29127000  0.35271000  0.53062000  1.0
  Zn  Zn4  1  0.23781000  0.22745000  0.48100000  1.0
  Zn  Zn5  1  0.21615000  0.32417000  0.47488000  1.0
  Zn  Zn6  1  0.84204000  0.05336000  0.54560000  1.0
  Zn  Zn7  1  0.89811000  0.22848000  0.48909000  1.0
  Zn  Zn8  1  0.91605000  0.13646000  0.48530000  1.0
  Zn  Zn9  1  0.67620000  0.60012000  0.90522000  1.0
  Zn  Zn10  1  0.50401000  0.50994000  0.36319000  1.0
  Zn  Zn11  1  0.57859000  0.49650000  0.21951000  1.0
  Zn  Zn12  1  0.56899000  0.44615000  0.33396000  1.0
  Zn  Zn13  1  0.12824000  0.90327000  0.59515000  1.0
  Zn  Zn14  1  0.63260000  0.05555000  0.39015000  1.0
  Zn  Zn15  1  0.54649000  0.19395000  0.23608000  1.0
  Zn  Zn16  1  0.56549000  0.15000000  0.34860000  1.0
  Zn  Zn17  1  0.07224000  0.74000000  0.74479000  1.0
  Zn  Zn18  1  0.06459000  0.80776000  0.63109000  1.0
  Zn  Zn19  1  0.18039000  0.35296000  0.06185000  1.0
  Zn  Zn20  1  0.23663000  0.23307000  0.23773000  1.0
  Zn  Zn21  1  0.24917000  0.33685000  0.14901000  1.0
  Zn  Zn22  1  0.73823000  0.72144000  0.72955000  1.0
  Zn  Zn23  1  0.74593000  0.61604000  0.81954000  1.0
  Zn  Zn24  1  0.34973000  0.91475000  0.42611000  1.0
  Zn  Zn25  1  0.45122000  0.42597000  0.89407000  1.0
  Zn  Zn26  1  0.38440000  0.49795000  0.80773000  1.0
  Zn  Zn27  1  0.41091000  0.82370000  0.49568000  1.0
  Zn  Zn28  1  0.78956000  0.60336000  0.43186000  1.0
  Zn  Zn29  1  0.73439000  0.72432000  0.48524000  1.0
  Zn  Zn30  1  0.71769000  0.62246000  0.49638000  1.0
  Zn  Zn31  1  0.40161000  0.49508000  0.71303000  1.0
  Zn  Zn32  1  0.00372000  0.44205000  0.60481000  1.0
  Zn  Zn33  1  0.05939000  0.48931000  0.73234000  1.0
  Zn  Zn34  1  0.07516000  0.50281000  0.63022000  1.0
  Zn  Zn35  1  0.40148000  0.73993000  0.47174000  1.0
  H  H36  1  0.98737000  0.61368000  0.05691000  1.0
  H  H37  1  0.02976000  0.64866000  0.09752000  1.0
  H  H38  1  0.96958000  0.54659000  0.22876000  1.0
  H  H39  1  0.02047000  0.61541000  0.18324000  1.0
  H  H40  1  0.35893000  0.27452000  0.60711000  1.0
  H  H41  1  0.41081000  0.20592000  0.62841000  1.0
  H  H42  1  0.32306000  0.16392000  0.54934000  1.0
  H  H43  1  0.39267000  0.15063000  0.60004000  1.0
  H  H44  1  0.17099000  0.92888000  0.67006000  1.0
  H  H45  1  0.19384000  0.90982000  0.75060000  1.0
  H  H46  1  0.11882000  0.77909000  0.80859000  1.0
  H  H47  1  0.16785000  0.83522000  0.81951000  1.0
  H  H48  1  0.77951000  0.05643000  0.62410000  1.0
  H  H49  1  0.72911000  0.10548000  0.64438000  1.0
  H  H50  1  0.81532000  0.22591000  0.55900000  1.0
  H  H51  1  0.74730000  0.18975000  0.61233000  1.0
  H  H52  1  0.63043000  0.68823000  0.90468000  1.0
  H  H53  1  0.59965000  0.76961000  0.86302000  1.0
  H  H54  1  0.68429000  0.80090000  0.74286000  1.0
  H  H55  1  0.62677000  0.82583000  0.78244000  1.0
  H  H56  1  0.46803000  0.61245000  0.28416000  1.0
  H  H57  1  0.45415000  0.67553000  0.20200000  1.0
  H  H58  1  0.53644000  0.60029000  0.15131000  1.0
  H  H59  1  0.48806000  0.66951000  0.13580000  1.0
  H  H60  1  0.94734000  0.19081000  0.35349000  1.0
  H  H61  1  0.94198000  0.31555000  0.21987000  1.0
  H  H62  1  0.90421000  0.32073000  0.34341000  1.0
  H  H63  1  0.66831000  0.42326000  0.14911000  1.0
  H  H64  1  0.68105000  0.36776000  0.15474000  1.0
  H  H65  1  0.64306000  0.29820000  0.21294000  1.0
  H  H66  1  0.61683000  0.43037000  0.20193000  1.0
  H  H67  1  0.54925000  0.30690000  0.31082000  1.0
  H  H68  1  0.17920000  0.47311000  0.21514000  1.0
  H  H69  1  0.17208000  0.46996000  0.27039000  1.0
  H  H70  1  0.18851000  0.39930000  0.34218000  1.0
  H  H71  1  0.20471000  0.40649000  0.20998000  1.0
  H  H72  1  0.23253000  0.27714000  0.33681000  1.0
  H  H73  1  0.81770000  0.54293000  0.98398000  1.0
  H  H74  1  0.66756000  0.35199000  0.55476000  1.0
  H  H75  1  0.62493000  0.39584000  0.48252000  1.0
  H  H76  1  0.63834000  0.54591000  0.40689000  1.0
  H  H77  1  0.43637000  0.96263000  0.60091000  1.0
  H  H78  1  0.47209000  0.01344000  0.58133000  1.0
  H  H79  1  0.51165000  0.04861000  0.50665000  1.0
  H  H80  1  0.31175000  0.56770000  0.99966000  1.0
  H  H81  1  0.34477000  0.59066000  0.94677000  1.0
  H  H82  1  0.28272000  0.48832000  0.03880000  1.0
  H  H83  1  0.17776000  0.56171000  0.37796000  1.0
  H  H84  1  0.19890000  0.48026000  0.42477000  1.0
  H  H85  1  0.14481000  0.40146000  0.56475000  1.0
  H  H86  1  0.98994000  0.97245000  0.56629000  1.0
  H  H87  1  0.10161000  0.31527000  0.29568000  1.0
  H  H88  1  0.04312000  0.33396000  0.29631000  1.0
  H  H89  1  0.00222000  0.38294000  0.22514000  1.0
  H  H90  1  0.13931000  0.33418000  0.22380000  1.0
  H  H91  1  0.06829000  0.42171000  0.09346000  1.0
  H  H92  1  0.74497000  0.28521000  0.41484000  1.0
  H  H93  1  0.68491000  0.28394000  0.40066000  1.0
  H  H94  1  0.65251000  0.21832000  0.39725000  1.0
  H  H95  1  0.79595000  0.21994000  0.43526000  1.0
  H  H96  1  0.74070000  0.09843000  0.43657000  1.0
  H  H97  1  0.37490000  0.26595000  0.37884000  1.0
  H  H98  1  0.43502000  0.28025000  0.36394000  1.0
  H  H99  1  0.47105000  0.34472000  0.36611000  1.0
  H  H100  1  0.32873000  0.30626000  0.40807000  1.0
  H  H101  1  0.39170000  0.41776000  0.42088000  1.0
  H  H102  1  0.12322000  0.66658000  0.00527000  1.0
  H  H103  1  0.14793000  0.70431000  0.94895000  1.0
  H  H104  1  0.12452000  0.69936000  0.88144000  1.0
  H  H105  1  0.06545000  0.60847000  0.01669000  1.0
  H  H106  1  0.00022000  0.57475000  0.38827000  1.0
  H  H107  1  0.02301000  0.54459000  0.36028000  1.0
  H  H108  1  0.97313000  0.52248000  0.31542000  1.0
  H  H109  1  0.82727000  0.55813000  0.30265000  1.0
  H  H110  1  0.51144000  0.36129000  0.60052000  1.0
  H  H111  1  0.43170000  0.36814000  0.57336000  1.0
  H  H112  1  0.34259000  0.97599000  0.59465000  1.0
  H  H113  1  0.36519000  0.03409000  0.56918000  1.0
  H  H114  1  0.31728000  0.10109000  0.52017000  1.0
  H  H115  1  0.26297000  0.96147000  0.58093000  1.0
  H  H116  1  0.17643000  0.07809000  0.48966000  1.0
  H  H117  1  0.77111000  0.32129000  0.58717000  1.0
  H  H118  1  0.81987000  0.30899000  0.53491000  1.0
  H  H119  1  0.95811000  0.36881000  0.50401000  1.0
  H  H120  1  0.60762000  0.90670000  0.65774000  1.0
  H  H121  1  0.62557000  0.96641000  0.63131000  1.0
  H  H122  1  0.70268000  0.99090000  0.59765000  1.0
  H  H123  1  0.65938000  0.84731000  0.66172000  1.0
  H  H124  1  0.76964000  0.47718000  0.08937000  1.0
  H  H125  1  0.74629000  0.45574000  0.14662000  1.0
  H  H126  1  0.68443000  0.49654000  0.16116000  1.0
  H  H127  1  0.73759000  0.54529000  0.02319000  1.0
  H  H128  1  0.62055000  0.61528000  0.04362000  1.0
  H  H129  1  0.30798000  0.62681000  0.32747000  1.0
  H  H130  1  0.38015000  0.58388000  0.35454000  1.0
  H  H131  1  0.68418000  0.29012000  0.31963000  1.0
  H  H132  1  0.73539000  0.28870000  0.28944000  1.0
  H  H133  1  0.78375000  0.35699000  0.24686000  1.0
  H  H134  1  0.66119000  0.35974000  0.32036000  1.0
  H  H135  1  0.74088000  0.48567000  0.23897000  1.0
  H  H136  1  0.41947000  0.37597000  0.24788000  1.0
  H  H137  1  0.46816000  0.34428000  0.28347000  1.0
  H  H138  1  0.48374000  0.26510000  0.30247000  1.0
  H  H139  1  0.36526000  0.34039000  0.21939000  1.0
  H  H140  1  0.10471000  0.13840000  0.67312000  1.0
  H  H141  1  0.04948000  0.11236000  0.67467000  1.0
  H  H142  1  0.00584000  0.13444000  0.60407000  1.0
  H  H143  1  0.14016000  0.19484000  0.60009000  1.0
  H  H144  1  0.06544000  0.23611000  0.47215000  1.0
  H  H145  1  0.70312000  0.38051000  0.57749000  1.0
  H  H146  1  0.02427000  0.59428000  0.89931000  1.0
  H  H147  1  0.96680000  0.24232000  0.22781000  1.0
  H  H148  1  0.96917000  0.19029000  0.28369000  1.0
  H  H149  1  0.30368000  0.69963000  0.73553000  1.0
  H  H150  1  0.30340000  0.75319000  0.68091000  1.0
  H  H151  1  0.85006000  0.39612000  0.05214000  1.0
  H  H152  1  0.42304000  0.92781000  0.55267000  1.0
  H  H153  1  0.36382000  0.54311000  0.91240000  1.0
  H  H154  1  0.91275000  0.02496000  0.43808000  1.0
  H  H155  1  0.79640000  0.88801000  0.60032000  1.0
  H  H156  1  0.29101000  0.07764000  0.37445000  1.0
  H  H157  1  0.39038000  0.19895000  0.25084000  1.0
  H  H158  1  0.89822000  0.74616000  0.73380000  1.0
  H  H159  1  0.67007000  0.01885000  0.32192000  1.0
  H  H160  1  0.18668000  0.15211000  0.22308000  1.0
  H  H161  1  0.34000000  0.75897000  0.61264000  1.0
  H  H162  1  0.34018000  0.63070000  0.74333000  1.0
  H  H163  1  0.19035000  0.70097000  0.66713000  1.0
  H  H164  1  0.81877000  0.35057000  0.01957000  1.0
  H  H165  1  0.78333000  0.37669000  0.96812000  1.0
  H  H166  1  0.76335000  0.45878000  0.92902000  1.0
  H  H167  1  0.49069000  0.98860000  0.41863000  1.0
  H  H168  1  0.31453000  0.40113000  0.97986000  1.0
  H  H169  1  0.95737000  0.93554000  0.41263000  1.0
  H  H170  1  0.92207000  0.98671000  0.39247000  1.0
  H  H171  1  0.00132000  0.90421000  0.48470000  1.0
  H  H172  1  0.64268000  0.60350000  0.74636000  1.0
  H  H173  1  0.55730000  0.53658000  0.87043000  1.0
  H  H174  1  0.23569000  0.87020000  0.53486000  1.0
  H  H175  1  0.83780000  0.97724000  0.37798000  1.0
  H  H176  1  0.76113000  0.99059000  0.39879000  1.0
  H  H177  1  0.67340000  0.87231000  0.48417000  1.0
  H  H178  1  0.49247000  0.33110000  0.07239000  1.0
  H  H179  1  0.93846000  0.40752000  0.94250000  1.0
  H  H180  1  0.96609000  0.38525000  0.99817000  1.0
  H  H181  1  0.04978000  0.37421000  0.00684000  1.0
  H  H182  1  0.11586000  0.04325000  0.30456000  1.0
  H  H183  1  0.15697000  0.10620000  0.30616000  1.0
  H  H184  1  0.57446000  0.71965000  0.63748000  1.0
  H  H185  1  0.86027000  0.61390000  0.74637000  1.0
  H  H186  1  0.98773000  0.68151000  0.67758000  1.0
  H  H187  1  0.58986000  0.14488000  0.18046000  1.0
  H  H188  1  0.14158000  0.26381000  0.05764000  1.0
  H  H189  1  0.13426000  0.12634000  0.18019000  1.0
  H  H190  1  0.71825000  0.54493000  0.76041000  1.0
  H  H191  1  0.73352000  0.67494000  0.63050000  1.0
  H  H192  1  0.25655000  0.66772000  0.64867000  1.0
  H  H193  1  0.05402000  0.64237000  0.67518000  1.0
  H  H194  1  0.14296000  0.75566000  0.56378000  1.0
  H  H195  1  0.85882000  0.91946000  0.39720000  1.0
  H  H196  1  0.57925000  0.21262000  0.10313000  1.0
  H  H197  1  0.14104000  0.98625000  0.32897000  1.0
  H  H198  1  0.21721000  0.96900000  0.36583000  1.0
  H  H199  1  0.62575000  0.68780000  0.63970000  1.0
  H  H200  1  0.52207000  0.74979000  0.57185000  1.0
  H  H201  1  0.50565000  0.55702000  0.73869000  1.0
  H  H202  1  0.81099000  0.85191000  0.44416000  1.0
  H  H203  1  0.98325000  0.42662000  0.87291000  1.0
  H  H204  1  0.13234000  0.40751000  0.88532000  1.0
  H  H205  1  0.96598000  0.60662000  0.68762000  1.0
  H  H206  1  0.91317000  0.57820000  0.71687000  1.0
  H  H207  1  0.11153000  0.18195000  0.09787000  1.0
  H  H208  1  0.61524000  0.60619000  0.67671000  1.0
  H  H209  1  0.28374000  0.75570000  0.51896000  1.0
  H  H210  1  0.54847000  0.31413000  0.96084000  1.0
  H  H211  1  0.93567000  0.66764000  0.60755000  1.0
  H  H212  1  0.67616000  0.02111000  0.24560000  1.0
  H  H213  1  0.63626000  0.08391000  0.17512000  1.0
  H  H214  1  0.40361000  0.63671000  0.62172000  1.0
  H  H215  1  0.24984000  0.62019000  0.63786000  1.0
  H  H216  1  0.87582000  0.68191000  0.59124000  1.0
  H  H217  1  0.55658000  0.59029000  0.67236000  1.0
  H  H218  1  0.31175000  0.92727000  0.32912000  1.0
  H  H219  1  0.64406000  0.67217000  0.57796000  1.0
  H  H220  1  0.17078000  0.69513000  0.54965000  1.0
  H  H221  1  0.60993000  0.20512000  0.03943000  1.0
  H  H222  1  0.71146000  0.47344000  0.75906000  1.0
  H  H223  1  0.79161000  0.35347000  0.61393000  1.0
  H  H224  1  0.83717000  0.68992000  0.34159000  1.0
  H  H225  1  0.88046000  0.76500000  0.31094000  1.0
  H  H226  1  0.80373000  0.79692000  0.40412000  1.0
  H  H227  1  0.86352000  0.81855000  0.34170000  1.0
  H  H228  1  0.50069000  0.33976000  0.88910000  1.0
  H  H229  1  0.54150000  0.31029000  0.84232000  1.0
  H  H230  1  0.47211000  0.41450000  0.71730000  1.0
  H  H231  1  0.52682000  0.34716000  0.75682000  1.0
  H  H232  1  0.93850000  0.36305000  0.68521000  1.0
  H  H233  1  0.89169000  0.33471000  0.75825000  1.0
  H  H234  1  0.97595000  0.41775000  0.79787000  1.0
  H  H235  1  0.91067000  0.36166000  0.81449000  1.0
  H  H236  1  0.27812000  0.89148000  0.28454000  1.0
  H  H237  1  0.34901000  0.76173000  0.37569000  1.0
  H  H238  1  0.29699000  0.80916000  0.30760000  1.0
  H  H239  1  0.71307000  0.47293000  0.70525000  1.0
  H  H240  1  0.72230000  0.54367000  0.63218000  1.0
  H  H241  1  0.17423000  0.58666000  0.64122000  1.0
  H  H242  1  0.71312000  0.46411000  0.53589000  1.0
  H  H243  1  0.14116000  0.58959000  0.40063000  1.0
  H  H244  1  0.10973000  0.54705000  0.47890000  1.0
  H  H245  1  0.83217000  0.64428000  0.55747000  1.0
  H  H246  1  0.97385000  0.60544000  0.60257000  1.0
  H  H247  1  0.89909000  0.53817000  0.53872000  1.0
  H  H248  1  0.22988000  0.69431000  0.53254000  1.0
  H  H249  1  0.91850000  0.59419000  0.38342000  1.0
  H  H250  1  0.59714000  0.24749000  0.98006000  1.0
  H  H251  1  0.53230000  0.39525000  0.62521000  1.0
  H  H252  1  0.48193000  0.44926000  0.63334000  1.0
  H  H253  1  0.34036000  0.46616000  0.58292000  1.0
  H  H254  1  0.86934000  0.38647000  0.59897000  1.0
  H  H255  1  0.28822000  0.66423000  0.34855000  1.0
  H  H256  1  0.33283000  0.67400000  0.40484000  1.0
  H  H257  1  0.46113000  0.59662000  0.45734000  1.0
  H  H258  1  0.55768000  0.73192000  0.45479000  1.0
  H  H259  1  0.20644000  0.30754000  0.79644000  1.0
  H  H260  1  0.26204000  0.30818000  0.82080000  1.0
  H  H261  1  0.30011000  0.38058000  0.80218000  1.0
  H  H262  1  0.16488000  0.37896000  0.74622000  1.0
  H  H263  1  0.22939000  0.51017000  0.71183000  1.0
  C  C264  1  0.91188000  0.37339000  0.24933000  1.0
  C  C265  1  0.00807000  0.56116000  0.99023000  1.0
  C  C266  1  0.86848000  0.47504000  0.05465000  1.0
  C  C267  1  0.95231000  0.56243000  0.12032000  1.0
  C  C268  1  0.98259000  0.59957000  0.09390000  1.0
  C  C269  1  0.00640000  0.61945000  0.11697000  1.0
  C  C270  1  0.89100000  0.51749000  0.27676000  1.0
  C  C271  1  0.98698000  0.43179000  0.13275000  1.0
  C  C272  1  0.81292000  0.44370000  0.21921000  1.0
  C  C273  1  0.94626000  0.54498000  0.16703000  1.0
  C  C274  1  0.97113000  0.56241000  0.19137000  1.0
  C  C275  1  0.00091000  0.60076000  0.16557000  1.0
  C  C276  1  0.82693000  0.59182000  0.36146000  1.0
  C  C277  1  0.57998000  0.24887000  0.27694000  1.0
  C  C278  1  0.65385000  0.13271000  0.40311000  1.0
  C  C279  1  0.21572000  0.30942000  0.39694000  1.0
  C  C280  1  0.34427000  0.40430000  0.55363000  1.0
  C  C281  1  0.20323000  0.39615000  0.50240000  1.0
  C  C282  1  0.31071000  0.25444000  0.56972000  1.0
  C  C283  1  0.35060000  0.24978000  0.59586000  1.0
  C  C284  1  0.37984000  0.21118000  0.60753000  1.0
  C  C285  1  0.23661000  0.14609000  0.47879000  1.0
  C  C286  1  0.31258000  0.36362000  0.44292000  1.0
  C  C287  1  0.14988000  0.24297000  0.50750000  1.0
  C  C288  1  0.30123000  0.22452000  0.55349000  1.0
  C  C289  1  0.33002000  0.18674000  0.56324000  1.0
  C  C290  1  0.36953000  0.17974000  0.59143000  1.0
  C  C291  1  0.17663000  0.98465000  0.54351000  1.0
  C  C292  1  0.13157000  0.86463000  0.69564000  1.0
  C  C293  1  0.15951000  0.89673000  0.70004000  1.0
  C  C294  1  0.17235000  0.88575000  0.74556000  1.0
  C  C295  1  0.11740000  0.82382000  0.73325000  1.0
  C  C296  1  0.12987000  0.81148000  0.77875000  1.0
  C  C297  1  0.15759000  0.84335000  0.78472000  1.0
  C  C298  1  0.23059000  0.31719000  0.24247000  1.0
  C  C299  1  0.15053000  0.37349000  0.13102000  1.0
  C  C300  1  0.95491000  0.40727000  0.55873000  1.0
  C  C301  1  0.91769000  0.22798000  0.40572000  1.0
  C  C302  1  0.78858000  0.97895000  0.57088000  1.0
  C  C303  1  0.92515000  0.03668000  0.51225000  1.0
  C  C304  1  0.82715000  0.11361000  0.58368000  1.0
  C  C305  1  0.78793000  0.09271000  0.61131000  1.0
  C  C306  1  0.75950000  0.12061000  0.62239000  1.0
  C  C307  1  0.90124000  0.31050000  0.49144000  1.0
  C  C308  1  0.81751000  0.13063000  0.45942000  1.0
  C  C309  1  0.98601000  0.18603000  0.51315000  1.0
  C  C310  1  0.83664000  0.16008000  0.56538000  1.0
  C  C311  1  0.80855000  0.18901000  0.57451000  1.0
  C  C312  1  0.76985000  0.16849000  0.60419000  1.0
  C  C313  1  0.67744000  0.61418000  0.97747000  1.0
  C  C314  1  0.67695000  0.70104000  0.84765000  1.0
  C  C315  1  0.64313000  0.71293000  0.87027000  1.0
  C  C316  1  0.62546000  0.75881000  0.84639000  1.0
  C  C317  1  0.69051000  0.73126000  0.80289000  1.0
  C  C318  1  0.67328000  0.77674000  0.77798000  1.0
  C  C319  1  0.64074000  0.79069000  0.80057000  1.0
  C  C320  1  0.55778000  0.40401000  0.27266000  1.0
  C  C321  1  0.45988000  0.55458000  0.40511000  1.0
  C  C322  1  0.59187000  0.47301000  0.40682000  1.0
  C  C323  1  0.51137000  0.57275000  0.26253000  1.0
  C  C324  1  0.48341000  0.61024000  0.25552000  1.0
  C  C325  1  0.47556000  0.64572000  0.20901000  1.0
  C  C326  1  0.61774000  0.56015000  0.13880000  1.0
  C  C327  1  0.47634000  0.41838000  0.38096000  1.0
  C  C328  1  0.65611000  0.45246000  0.28171000  1.0
  C  C329  1  0.53047000  0.56987000  0.22634000  1.0
  C  C330  1  0.52251000  0.60357000  0.17990000  1.0
  C  C331  1  0.49489000  0.64233000  0.17139000  1.0
  C  C332  1  0.92223000  0.32356000  0.27862000  1.0
  C  C333  1  0.91616000  0.30103000  0.32721000  1.0
  C  C334  1  0.92471000  0.25295000  0.35462000  1.0
  C  C335  1  0.94676000  0.25036000  0.28446000  1.0
  C  C336  1  0.94040000  0.22797000  0.33291000  1.0
  C  C337  1  0.93718000  0.29810000  0.25743000  1.0
  C  C338  1  0.58088000  0.37215000  0.25909000  1.0
  C  C339  1  0.57353000  0.32325000  0.28189000  1.0
  C  C340  1  0.59507000  0.29661000  0.26415000  1.0
  C  C341  1  0.63430000  0.36639000  0.20437000  1.0
  C  C342  1  0.62628000  0.31844000  0.22649000  1.0
  C  C343  1  0.61100000  0.39299000  0.22016000  1.0
  C  C344  1  0.21982000  0.33923000  0.27045000  1.0
  C  C345  1  0.22198000  0.31352000  0.31938000  1.0
  C  C346  1  0.21121000  0.33503000  0.34562000  1.0
  C  C347  1  0.19475000  0.40802000  0.27362000  1.0
  C  C348  1  0.19706000  0.38217000  0.32244000  1.0
  C  C349  1  0.20671000  0.38653000  0.24780000  1.0
  C  C350  1  0.64687000  0.51227000  0.43686000  1.0
  C  C351  1  0.62733000  0.47091000  0.44082000  1.0
  C  C352  1  0.66999000  0.42509000  0.51380000  1.0
  C  C353  1  0.63979000  0.42761000  0.47905000  1.0
  C  C354  1  0.46621000  0.98824000  0.53454000  1.0
  C  C355  1  0.49520000  0.02278000  0.50024000  1.0
  C  C356  1  0.17484000  0.43630000  0.49548000  1.0
  C  C357  1  0.14748000  0.43406000  0.53189000  1.0
  C  C358  1  0.15468000  0.51861000  0.44680000  1.0
  C  C359  1  0.17772000  0.47842000  0.45286000  1.0
  C  C360  1  0.98031000  0.97012000  0.53576000  1.0
  C  C361  1  0.94904000  0.00269000  0.50305000  1.0
  C  C362  1  0.10974000  0.37911000  0.15549000  1.0
  C  C363  1  0.06912000  0.40360000  0.13132000  1.0
  C  C364  1  0.02938000  0.40420000  0.15633000  1.0
  C  C365  1  0.07103000  0.35636000  0.22966000  1.0
  C  C366  1  0.03127000  0.38099000  0.20540000  1.0
  C  C367  1  0.10975000  0.35522000  0.20459000  1.0
  C  C368  1  0.77386000  0.15662000  0.43695000  1.0
  C  C369  1  0.73578000  0.13366000  0.43020000  1.0
  C  C370  1  0.69175000  0.15569000  0.41528000  1.0
  C  C371  1  0.72358000  0.22411000  0.41555000  1.0
  C  C372  1  0.68599000  0.20085000  0.40854000  1.0
  C  C373  1  0.76747000  0.20219000  0.42892000  1.0
  C  C374  1  0.35459000  0.36309000  0.41647000  1.0
  C  C375  1  0.39400000  0.39135000  0.41067000  1.0
  C  C376  1  0.43637000  0.38543000  0.39204000  1.0
  C  C377  1  0.40015000  0.32181000  0.38580000  1.0
  C  C378  1  0.43900000  0.35002000  0.38035000  1.0
  C  C379  1  0.35806000  0.32904000  0.40300000  1.0
  C  C380  1  0.04189000  0.59708000  0.96104000  1.0
  C  C381  1  0.04593000  0.61087000  0.91381000  1.0
  C  C382  1  0.07467000  0.64857000  0.88465000  1.0
  C  C383  1  0.09913000  0.65570000  0.95150000  1.0
  C  C384  1  0.10185000  0.67041000  0.90374000  1.0
  C  C385  1  0.06847000  0.61940000  0.97991000  1.0
  C  C386  1  0.86804000  0.57831000  0.34432000  1.0
  C  C387  1  0.86186000  0.55917000  0.31554000  1.0
  C  C388  1  0.89941000  0.53875000  0.30548000  1.0
  C  C389  1  0.95123000  0.55937000  0.35062000  1.0
  C  C390  1  0.94402000  0.53844000  0.32324000  1.0
  C  C391  1  0.91311000  0.57932000  0.36105000  1.0
  C  C392  1  0.21566000  0.01654000  0.53561000  1.0
  C  C393  1  0.21001000  0.06469000  0.50622000  1.0
  C  C394  1  0.24608000  0.09558000  0.50148000  1.0
  C  C395  1  0.29567000  0.02916000  0.55195000  1.0
  C  C396  1  0.28913000  0.07754000  0.52380000  1.0
  C  C397  1  0.25845000  0.99885000  0.55843000  1.0
  C  C398  1  0.89012000  0.33630000  0.51602000  1.0
  C  C399  1  0.92464000  0.36343000  0.52137000  1.0
  C  C400  1  0.91756000  0.38092000  0.55173000  1.0
  C  C401  1  0.83927000  0.34764000  0.56886000  1.0
  C  C402  1  0.87497000  0.37278000  0.57561000  1.0
  C  C403  1  0.84706000  0.32940000  0.53913000  1.0
  C  C404  1  0.72952000  0.86169000  0.63334000  1.0
  C  C405  1  0.76242000  0.89686000  0.60827000  1.0
  C  C406  1  0.75305000  0.94318000  0.59600000  1.0
  C  C407  1  0.67560000  0.92052000  0.63027000  1.0
  C  C408  1  0.70991000  0.95494000  0.60738000  1.0
  C  C409  1  0.68558000  0.87398000  0.64313000  1.0
  C  C410  1  0.67927000  0.58413000  0.02806000  1.0
  C  C411  1  0.64697000  0.58813000  0.05775000  1.0
  C  C412  1  0.64945000  0.55688000  0.10594000  1.0
  C  C413  1  0.71480000  0.51664000  0.09420000  1.0
  C  C414  1  0.68310000  0.52113000  0.12396000  1.0
  C  C415  1  0.71319000  0.54873000  0.04639000  1.0
  C  C416  1  0.69727000  0.42567000  0.28156000  1.0
  C  C417  1  0.73587000  0.44855000  0.25260000  1.0
  C  C418  1  0.76732000  0.42376000  0.24021000  1.0
  C  C419  1  0.72156000  0.35300000  0.28539000  1.0
  C  C420  1  0.75941000  0.37632000  0.25599000  1.0
  C  C421  1  0.69145000  0.37750000  0.29910000  1.0
  C  C422  1  0.37260000  0.26991000  0.23219000  1.0
  C  C423  1  0.44068000  0.22685000  0.27944000  1.0
  C  C424  1  0.42608000  0.30711000  0.26118000  1.0
  C  C425  1  0.45250000  0.26585000  0.28366000  1.0
  C  C426  1  0.38650000  0.30900000  0.23529000  1.0
  C  C427  1  0.10699000  0.21952000  0.53323000  1.0
  C  C428  1  0.06755000  0.21552000  0.50992000  1.0
  C  C429  1  0.03104000  0.18450000  0.53547000  1.0
  C  C430  1  0.07325000  0.16167000  0.60779000  1.0
  C  C431  1  0.03435000  0.15751000  0.58424000  1.0
  C  C432  1  0.10933000  0.19278000  0.58210000  1.0
  C  C433  1  0.07237000  0.66831000  0.83389000  1.0
  C  C434  1  0.81469000  0.50934000  0.98580000  1.0
  C  C435  1  0.54107000  0.05381000  0.42630000  1.0
  C  C436  1  0.47620000  0.18958000  0.29238000  1.0
  C  C437  1  0.03636000  0.90449000  0.56049000  1.0
  C  C438  1  0.98712000  0.74935000  0.69770000  1.0
  C  C439  1  0.26501000  0.40388000  0.04816000  1.0
  C  C440  1  0.23319000  0.14786000  0.31859000  1.0
  C  C441  1  0.32544000  0.26996000  0.21363000  1.0
  C  C442  1  0.75988000  0.54526000  0.91779000  1.0
  C  C443  1  0.74308000  0.81212000  0.65406000  1.0
  C  C444  1  0.64380000  0.58031000  0.83690000  1.0
  C  C445  1  0.82570000  0.68188000  0.75870000  1.0
  C  C446  1  0.83734000  0.46997000  0.02187000  1.0
  C  C447  1  0.78777000  0.50539000  0.95236000  1.0
  C  C448  1  0.80638000  0.42235000  0.99075000  1.0
  C  C449  1  0.78428000  0.46200000  0.95462000  1.0
  C  C450  1  0.83246000  0.42648000  0.02457000  1.0
  C  C451  1  0.45444000  0.95396000  0.48483000  1.0
  C  C452  1  0.48381000  0.98853000  0.45094000  1.0
  C  C453  1  0.50463000  0.02280000  0.45864000  1.0
  C  C454  1  0.44623000  0.95379000  0.52674000  1.0
  C  C455  1  0.29557000  0.44058000  0.01345000  1.0
  C  C456  1  0.31722000  0.43444000  0.97869000  1.0
  C  C457  1  0.34198000  0.47130000  0.94222000  1.0
  C  C458  1  0.32382000  0.52078000  0.97549000  1.0
  C  C459  1  0.34454000  0.51460000  0.94038000  1.0
  C  C460  1  0.29965000  0.48346000  0.01218000  1.0
  C  C461  1  0.99930000  0.93459000  0.52917000  1.0
  C  C462  1  0.95560000  0.96429000  0.45663000  1.0
  C  C463  1  0.93719000  0.99999000  0.46328000  1.0
  C  C464  1  0.98627000  0.93129000  0.49006000  1.0
  C  C465  1  0.26002000  0.06595000  0.36431000  1.0
  C  C466  1  0.22459000  0.09762000  0.33884000  1.0
  C  C467  1  0.40018000  0.22895000  0.25398000  1.0
  C  C468  1  0.94701000  0.71848000  0.70352000  1.0
  C  C469  1  0.90548000  0.71784000  0.72712000  1.0
  C  C470  1  0.87362000  0.68010000  0.74246000  1.0
  C  C471  1  0.67509000  0.96691000  0.43744000  1.0
  C  C472  1  0.62730000  0.08146000  0.29251000  1.0
  C  C473  1  0.65315000  0.04632000  0.29131000  1.0
  C  C474  1  0.53019000  0.25332000  0.14381000  1.0
  C  C475  1  0.60558000  0.11575000  0.25403000  1.0
  C  C476  1  0.49252000  0.36970000  0.97871000  1.0
  C  C477  1  0.36823000  0.46401000  0.90802000  1.0
  C  C478  1  0.48273000  0.51672000  0.82889000  1.0
  C  C479  1  0.09974000  0.71128000  0.68031000  1.0
  C  C480  1  0.14910000  0.83450000  0.57023000  1.0
  C  C481  1  0.13903000  0.38122000  0.97619000  1.0
  C  C482  1  0.18191000  0.25208000  0.11808000  1.0
  C  C483  1  0.19375000  0.22194000  0.16340000  1.0
  C  C484  1  0.17720000  0.17615000  0.18736000  1.0
  C  C485  1  0.73181000  0.63680000  0.72545000  1.0
  C  C486  1  0.29622000  0.98834000  0.39764000  1.0
  C  C487  1  0.42766000  0.92224000  0.47394000  1.0
  C  C488  1  0.31007000  0.83945000  0.50618000  1.0
  C  C489  1  0.33699000  0.69707000  0.68028000  1.0
  C  C490  1  0.34920000  0.72228000  0.63303000  1.0
  C  C491  1  0.34955000  0.64992000  0.70665000  1.0
  C  C492  1  0.12001000  0.67546000  0.67207000  1.0
  C  C493  1  0.16823000  0.67557000  0.66476000  1.0
  C  C494  1  0.52557000  0.54491000  0.80698000  1.0
  C  C495  1  0.56213000  0.54977000  0.83340000  1.0
  C  C496  1  0.60505000  0.57133000  0.81175000  1.0
  C  C497  1  0.61075000  0.58657000  0.76395000  1.0
  C  C498  1  0.18480000  0.81516000  0.55184000  1.0
  C  C499  1  0.22894000  0.83694000  0.53693000  1.0
  C  C500  1  0.26507000  0.81538000  0.52571000  1.0
  C  C501  1  0.71315000  0.93488000  0.44175000  1.0
  C  C502  1  0.70662000  0.88633000  0.46709000  1.0
  C  C503  1  0.79127000  0.92328000  0.41975000  1.0
  C  C504  1  0.75566000  0.95311000  0.41833000  1.0
  C  C505  1  0.53515000  0.27000000  0.09355000  1.0
  C  C506  1  0.51350000  0.31161000  0.06068000  1.0
  C  C507  1  0.51774000  0.32754000  0.01283000  1.0
  C  C508  1  0.09591000  0.38939000  0.94910000  1.0
  C  C509  1  0.01122000  0.39958000  0.94251000  1.0
  C  C510  1  0.05206000  0.38588000  0.96985000  1.0
  C  C511  1  0.25783000  0.02013000  0.37297000  1.0
  C  C512  1  0.18169000  0.03546000  0.33558000  1.0
  C  C513  1  0.18480000  0.08193000  0.32564000  1.0
  C  C514  1  0.21889000  0.00482000  0.35856000  1.0
  C  C515  1  0.92530000  0.64338000  0.71144000  1.0
  C  C516  1  0.88454000  0.64277000  0.73522000  1.0
  C  C517  1  0.95571000  0.68166000  0.69494000  1.0
  C  C518  1  0.60763000  0.11806000  0.21080000  1.0
  C  C519  1  0.15158000  0.23953000  0.09324000  1.0
  C  C520  1  0.13470000  0.19331000  0.11613000  1.0
  C  C521  1  0.14758000  0.16173000  0.16291000  1.0
  C  C522  1  0.72661000  0.61300000  0.69827000  1.0
  C  C523  1  0.37373000  0.62766000  0.68600000  1.0
  C  C524  1  0.37307000  0.70053000  0.61191000  1.0
  C  C525  1  0.09116000  0.64291000  0.66876000  1.0
  C  C526  1  0.57529000  0.58123000  0.73783000  1.0
  C  C527  1  0.53257000  0.56165000  0.75913000  1.0
  C  C528  1  0.17670000  0.77268000  0.55294000  1.0
  C  C529  1  0.74144000  0.85614000  0.46740000  1.0
  C  C530  1  0.78390000  0.87486000  0.44414000  1.0
  C  C531  1  0.56194000  0.24463000  0.07812000  1.0
  C  C532  1  0.09855000  0.40489000  0.90140000  1.0
  C  C533  1  0.01451000  0.41612000  0.89433000  1.0
  C  C534  1  0.73158000  0.80589000  0.48752000  1.0
  C  C535  1  0.65639000  0.04768000  0.24812000  1.0
  C  C536  1  0.63373000  0.08337000  0.20806000  1.0
  C  C537  1  0.38547000  0.57760000  0.71449000  1.0
  C  C538  1  0.38841000  0.72910000  0.56338000  1.0
  C  C539  1  0.38489000  0.65316000  0.63821000  1.0
  C  C540  1  0.18789000  0.64366000  0.65341000  1.0
  C  C541  1  0.21225000  0.75127000  0.54102000  1.0
  C  C542  1  0.25654000  0.77218000  0.52855000  1.0
  C  C543  1  0.56698000  0.26055000  0.03029000  1.0
  C  C544  1  0.54468000  0.30196000  0.99779000  1.0
  C  C545  1  0.05805000  0.41798000  0.87406000  1.0
  C  C546  1  0.58429000  0.71014000  0.57983000  1.0
  C  C547  1  0.54509000  0.73612000  0.55544000  1.0
  C  C548  1  0.72970000  0.63725000  0.64942000  1.0
  C  C549  1  0.72122000  0.56403000  0.72263000  1.0
  C  C550  1  0.11032000  0.61095000  0.65721000  1.0
  C  C551  1  0.15876000  0.61178000  0.64925000  1.0
  C  C552  1  0.06220000  0.43276000  0.82458000  1.0
  C  C553  1  0.48830000  0.76239000  0.49104000  1.0
  C  C554  1  0.53444000  0.74302000  0.51098000  1.0
  C  C555  1  0.61278000  0.69057000  0.55962000  1.0
  C  C556  1  0.35117000  0.86486000  0.37484000  1.0
  C  C557  1  0.72815000  0.61242000  0.62526000  1.0
  C  C558  1  0.71955000  0.53914000  0.69887000  1.0
  C  C559  1  0.72865000  0.63650000  0.57399000  1.0
  C  C560  1  0.70466000  0.55168000  0.46475000  1.0
  C  C561  1  0.79505000  0.70335000  0.38818000  1.0
  C  C562  1  0.82957000  0.71321000  0.35474000  1.0
  C  C563  1  0.85388000  0.75576000  0.33744000  1.0
  C  C564  1  0.81829000  0.58998000  0.51890000  1.0
  C  C565  1  0.64494000  0.69466000  0.48933000  1.0
  C  C566  1  0.78616000  0.73253000  0.40527000  1.0
  C  C567  1  0.81023000  0.77437000  0.38983000  1.0
  C  C568  1  0.84422000  0.78622000  0.35487000  1.0
  C  C569  1  0.46292000  0.39251000  0.82887000  1.0
  C  C570  1  0.49439000  0.35578000  0.85208000  1.0
  C  C571  1  0.51724000  0.33917000  0.82549000  1.0
  C  C572  1  0.39833000  0.48919000  0.63280000  1.0
  C  C573  1  0.31335000  0.47256000  0.75572000  1.0
  C  C574  1  0.45551000  0.41322000  0.78188000  1.0
  C  C575  1  0.47777000  0.39800000  0.75442000  1.0
  C  C576  1  0.50887000  0.36009000  0.77692000  1.0
  C  C577  1  0.08160000  0.57332000  0.65832000  1.0
  C  C578  1  0.09225000  0.47125000  0.56248000  1.0
  C  C579  1  0.98506000  0.40305000  0.70361000  1.0
  C  C580  1  0.94735000  0.37370000  0.71029000  1.0
  C  C581  1  0.92095000  0.35801000  0.75144000  1.0
  C  C582  1  0.98187000  0.53483000  0.58320000  1.0
  C  C583  1  0.14726000  0.47013000  0.70581000  1.0
  C  C584  1  0.99541000  0.41798000  0.73435000  1.0
  C  C585  1  0.96915000  0.40435000  0.77465000  1.0
  C  C586  1  0.93180000  0.37325000  0.78346000  1.0
  C  C587  1  0.32056000  0.89188000  0.33841000  1.0
  C  C588  1  0.30154000  0.87144000  0.31353000  1.0
  C  C589  1  0.40720000  0.66248000  0.46065000  1.0
  C  C590  1  0.36099000  0.81952000  0.38794000  1.0
  C  C591  1  0.34189000  0.79778000  0.36490000  1.0
  C  C592  1  0.31226000  0.82466000  0.32663000  1.0
  C  C593  1  0.72335000  0.56338000  0.65032000  1.0
  C  C594  1  0.67812000  0.51008000  0.47113000  1.0
  C  C595  1  0.68884000  0.46630000  0.50965000  1.0
  C  C596  1  0.12376000  0.47401000  0.52593000  1.0
  C  C597  1  0.12809000  0.51626000  0.48365000  1.0
  C  C598  1  0.94171000  0.56773000  0.57203000  1.0
  C  C599  1  0.90032000  0.56311000  0.55090000  1.0
  C  C600  1  0.86014000  0.59020000  0.54589000  1.0
  C  C601  1  0.90318000  0.62854000  0.58136000  1.0
  C  C602  1  0.86205000  0.62229000  0.56198000  1.0
  C  C603  1  0.94266000  0.60113000  0.58648000  1.0
  C  C604  1  0.38219000  0.41628000  0.57549000  1.0
  C  C605  1  0.37467000  0.45037000  0.58807000  1.0
  C  C606  1  0.40989000  0.46145000  0.61038000  1.0
  C  C607  1  0.46232000  0.40697000  0.60332000  1.0
  C  C608  1  0.45413000  0.44048000  0.61681000  1.0
  C  C609  1  0.42585000  0.39434000  0.58342000  1.0
  C  C610  1  0.42444000  0.58634000  0.40626000  1.0
  C  C611  1  0.43025000  0.60540000  0.43551000  1.0
  C  C612  1  0.39786000  0.63782000  0.43457000  1.0
  C  C613  1  0.35158000  0.62966000  0.37704000  1.0
  C  C614  1  0.35828000  0.64931000  0.40565000  1.0
  C  C615  1  0.38505000  0.59864000  0.37708000  1.0
  C  C616  1  0.56445000  0.72477000  0.49004000  1.0
  C  C617  1  0.60410000  0.69868000  0.51424000  1.0
  C  C618  1  0.19257000  0.44730000  0.72529000  1.0
  C  C619  1  0.23035000  0.47231000  0.72985000  1.0
  C  C620  1  0.26927000  0.44823000  0.75794000  1.0
  C  C621  1  0.23268000  0.37415000  0.77681000  1.0
  C  C622  1  0.26982000  0.39925000  0.78150000  1.0
  C  C623  1  0.19434000  0.39838000  0.74853000  1.0
  N  N624  1  0.93078000  0.53338000  0.10884000  1.0
  N  N625  1  0.91992000  0.50619000  0.18334000  1.0
  N  N626  1  0.91018000  0.50090000  0.14726000  1.0
  N  N627  1  0.28063000  0.29043000  0.54935000  1.0
  N  N628  1  0.26566000  0.24260000  0.52304000  1.0
  N  N629  1  0.25309000  0.28116000  0.52282000  1.0
  N  N630  1  0.11626000  0.86495000  0.65709000  1.0
  N  N631  1  0.09359000  0.79962000  0.71721000  1.0
  N  N632  1  0.85595000  0.09692000  0.56333000  1.0
  N  N633  1  0.87100000  0.17155000  0.53375000  1.0
  N  N634  1  0.88289000  0.13238000  0.53486000  1.0
  N  N635  1  0.69626000  0.65925000  0.86055000  1.0
  N  N636  1  0.52200000  0.53315000  0.30222000  1.0
  N  N637  1  0.55295000  0.52883000  0.24430000  1.0
  N  N638  1  0.54748000  0.50750000  0.29008000  1.0
  N  N639  1  0.66333000  0.38715000  0.16703000  1.0
  N  N640  1  0.18114000  0.45341000  0.25157000  1.0
  N  N641  1  0.68101000  0.38304000  0.55114000  1.0
  N  N642  1  0.45767000  0.98808000  0.57497000  1.0
  N  N643  1  0.32700000  0.56250000  0.97387000  1.0
  N  N644  1  0.15810000  0.55936000  0.40572000  1.0
  N  N645  1  0.07198000  0.33367000  0.27705000  1.0
  N  N646  1  0.71742000  0.26732000  0.40993000  1.0
  N  N647  1  0.40350000  0.28719000  0.37524000  1.0
  N  N648  1  0.12516000  0.67695000  0.96980000  1.0
  N  N649  1  0.99437000  0.55960000  0.36751000  1.0
  N  N650  1  0.33725000  0.01193000  0.57338000  1.0
  N  N651  1  0.79790000  0.34032000  0.59150000  1.0
  N  N652  1  0.63344000  0.93197000  0.64046000  1.0
  N  N653  1  0.74603000  0.48109000  0.11128000  1.0
  N  N654  1  0.71341000  0.30745000  0.29943000  1.0
  N  N655  1  0.43878000  0.34498000  0.26435000  1.0
  N  N656  1  0.07600000  0.13574000  0.65501000  1.0
  N  N657  1  0.61763000  0.08827000  0.32845000  1.0
  N  N658  1  0.59070000  0.12575000  0.31187000  1.0
  N  N659  1  0.09277000  0.82566000  0.67132000  1.0
  N  N660  1  0.21849000  0.24601000  0.17902000  1.0
  N  N661  1  0.22351000  0.28851000  0.14321000  1.0
  N  N662  1  0.71701000  0.70737000  0.78831000  1.0
  N  N663  1  0.72138000  0.66485000  0.82450000  1.0
  N  N664  1  0.96189000  0.22602000  0.26395000  1.0
  N  N665  1  0.31317000  0.71805000  0.70026000  1.0
  N  N666  1  0.58292000  0.14315000  0.26688000  1.0
  N  N667  1  0.19992000  0.29406000  0.10632000  1.0
  N  N668  1  0.80255000  0.38039000  0.99298000  1.0
  N  N669  1  0.94415000  0.96194000  0.41806000  1.0
  N  N670  1  0.96911000  0.39727000  0.96240000  1.0
  N  N671  1  0.14364000  0.02066000  0.32215000  1.0
  N  N672  1  0.83206000  0.94118000  0.39684000  1.0
  N  N673  1  0.59537000  0.70520000  0.62198000  1.0
  N  N674  1  0.93547000  0.60700000  0.70484000  1.0
  N  N675  1  0.23457000  0.64375000  0.64632000  1.0
  N  N676  1  0.36984000  0.87373000  0.40690000  1.0
  N  N677  1  0.58271000  0.59384000  0.69248000  1.0
  N  N678  1  0.43878000  0.41665000  0.84477000  1.0
  N  N679  1  0.41686000  0.45007000  0.80820000  1.0
  N  N680  1  0.39182000  0.83512000  0.43730000  1.0
  N  N681  1  0.90493000  0.66137000  0.59450000  1.0
  N  N682  1  0.20376000  0.71084000  0.54114000  1.0
  N  N683  1  0.59309000  0.23608000  0.01561000  1.0
  N  N684  1  0.77048000  0.66381000  0.41383000  1.0
  N  N685  1  0.75636000  0.71061000  0.44116000  1.0
  N  N686  1  0.74555000  0.67058000  0.44365000  1.0
  N  N687  1  0.42730000  0.45016000  0.76931000  1.0
  N  N688  1  0.01248000  0.42662000  0.66590000  1.0
  N  N689  1  0.02915000  0.45053000  0.71516000  1.0
  N  N690  1  0.03899000  0.45422000  0.67445000  1.0
  N  N691  1  0.38527000  0.80096000  0.42813000  1.0
  N  N692  1  0.71436000  0.49203000  0.72264000  1.0
  N  N693  1  0.50486000  0.38646000  0.61015000  1.0
  N  N694  1  0.31338000  0.64100000  0.34915000  1.0
  N  N695  1  0.23380000  0.32679000  0.79953000  1.0
  O  O696  1  0.90079000  0.50755000  0.03649000  1.0
  O  O697  1  0.86378000  0.44673000  0.10026000  1.0
  O  O698  1  0.91609000  0.48189000  0.28232000  1.0
  O  O699  1  0.85870000  0.53494000  0.24410000  1.0
  O  O700  1  0.99097000  0.46971000  0.09176000  1.0
  O  O701  1  0.94788000  0.42122000  0.15706000  1.0
  O  O702  1  0.82960000  0.43841000  0.18459000  1.0
  O  O703  1  0.83925000  0.45572000  0.24379000  1.0
  O  O704  1  0.92463000  0.40265000  0.26350000  1.0
  O  O705  1  0.89312000  0.38727000  0.20793000  1.0
  O  O706  1  0.98409000  0.56626000  0.02107000  1.0
  O  O707  1  0.00269000  0.52349000  0.98680000  1.0
  O  O708  1  0.78438000  0.58275000  0.35320000  1.0
  O  O709  1  0.61372000  0.15460000  0.38547000  1.0
  O  O710  1  0.50562000  0.17990000  0.32734000  1.0
  O  O711  1  0.57872000  0.21468000  0.32099000  1.0
  O  O712  1  0.23876000  0.38391000  0.53116000  1.0
  O  O713  1  0.19568000  0.37759000  0.47577000  1.0
  O  O714  1  0.26094000  0.17155000  0.49150000  1.0
  O  O715  1  0.19846000  0.16367000  0.45387000  1.0
  O  O716  1  0.31789000  0.37879000  0.47258000  1.0
  O  O717  1  0.27452000  0.34061000  0.44312000  1.0
  O  O718  1  0.16372000  0.28328000  0.50346000  1.0
  O  O719  1  0.17679000  0.21807000  0.49619000  1.0
  O  O720  1  0.24166000  0.27139000  0.41816000  1.0
  O  O721  1  0.19713000  0.32838000  0.41996000  1.0
  O  O722  1  0.33590000  0.36063000  0.56553000  1.0
  O  O723  1  0.08360000  0.71216000  0.80663000  1.0
  O  O724  1  0.16793000  0.95037000  0.58593000  1.0
  O  O725  1  0.15253000  0.98830000  0.50799000  1.0
  O  O726  1  0.19021000  0.35830000  0.15409000  1.0
  O  O727  1  0.21691000  0.27386000  0.25724000  1.0
  O  O728  1  0.24862000  0.34386000  0.20061000  1.0
  O  O729  1  0.98173000  0.43551000  0.52353000  1.0
  O  O730  1  0.89262000  0.02084000  0.54430000  1.0
  O  O731  1  0.93274000  0.08172000  0.48482000  1.0
  O  O732  1  0.87571000  0.27416000  0.49975000  1.0
  O  O733  1  0.94122000  0.31743000  0.46932000  1.0
  O  O734  1  0.81368000  0.08546000  0.48852000  1.0
  O  O735  1  0.85601000  0.15391000  0.45726000  1.0
  O  O736  1  0.97064000  0.14917000  0.51089000  1.0
  O  O737  1  0.95976000  0.22264000  0.50215000  1.0
  O  O738  1  0.89276000  0.24641000  0.42614000  1.0
  O  O739  1  0.93458000  0.18543000  0.42956000  1.0
  O  O740  1  0.79817000  0.01071000  0.58251000  1.0
  O  O741  1  0.81185000  0.97874000  0.53670000  1.0
  O  O742  1  0.64921000  0.60110000  0.95479000  1.0
  O  O743  1  0.71598000  0.63645000  0.95654000  1.0
  O  O744  1  0.55613000  0.50115000  0.39836000  1.0
  O  O745  1  0.59631000  0.44646000  0.38711000  1.0
  O  O746  1  0.58403000  0.52910000  0.15591000  1.0
  O  O747  1  0.63533000  0.57555000  0.16531000  1.0
  O  O748  1  0.46916000  0.45685000  0.38259000  1.0
  O  O749  1  0.51580000  0.41082000  0.36479000  1.0
  O  O750  1  0.63140000  0.43748000  0.32062000  1.0
  O  O751  1  0.63818000  0.47945000  0.24020000  1.0
  O  O752  1  0.54364000  0.44404000  0.23757000  1.0
  O  O753  1  0.57017000  0.40150000  0.31255000  1.0
  O  O754  1  0.46454000  0.55137000  0.36729000  1.0
  O  O755  1  0.31852000  0.43779000  0.52126000  1.0
  O  O756  1  0.57914000  0.03285000  0.42360000  1.0
  O  O757  1  0.53430000  0.09988000  0.40105000  1.0
  O  O758  1  0.51110000  0.27992000  0.15843000  1.0
  O  O759  1  0.66406000  0.09284000  0.40571000  1.0
  O  O760  1  0.48764000  0.18128000  0.25882000  1.0
  O  O761  1  0.56958000  0.24242000  0.24172000  1.0
  O  O762  1  0.07359000  0.92586000  0.56417000  1.0
  O  O763  1  0.03116000  0.85835000  0.58320000  1.0
  O  O764  1  0.05323000  0.64482000  0.81572000  1.0
  O  O765  1  0.16033000  0.87141000  0.57304000  1.0
  O  O766  1  0.00690000  0.77450000  0.65581000  1.0
  O  O767  1  0.00966000  0.73807000  0.73655000  1.0
  O  O768  1  0.10214000  0.70612000  0.72237000  1.0
  O  O769  1  0.23005000  0.39032000  0.03197000  1.0
  O  O770  1  0.27267000  0.38719000  0.09330000  1.0
  O  O771  1  0.21432000  0.17570000  0.27798000  1.0
  O  O772  1  0.26776000  0.16316000  0.33355000  1.0
  O  O773  1  0.14414000  0.37686000  0.09021000  1.0
  O  O774  1  0.30788000  0.30966000  0.17895000  1.0
  O  O775  1  0.29932000  0.23321000  0.23941000  1.0
  O  O776  1  0.72384000  0.55809000  0.93313000  1.0
  O  O777  1  0.77017000  0.56504000  0.87309000  1.0
  O  O778  1  0.71781000  0.78037000  0.68828000  1.0
  O  O779  1  0.78412000  0.80057000  0.64503000  1.0
  O  O780  1  0.63498000  0.57970000  0.87642000  1.0
  O  O781  1  0.80583000  0.64251000  0.79170000  1.0
  O  O782  1  0.80124000  0.71956000  0.73168000  1.0
  O  O783  1  0.31234000  0.98543000  0.43625000  1.0
  O  O784  1  0.64260000  0.95383000  0.46970000  1.0
  O  O785  1  0.54654000  0.21221000  0.17443000  1.0
  O  O786  1  0.67399000  0.00899000  0.40065000  1.0
  O  O787  1  0.39945000  0.43048000  0.92400000  1.0
  O  O788  1  0.36328000  0.49406000  0.86308000  1.0
  O  O789  1  0.48706000  0.47908000  0.87045000  1.0
  O  O790  1  0.47377000  0.39823000  0.99106000  1.0
  O  O791  1  0.10967000  0.81142000  0.58790000  1.0
  O  O792  1  0.08205000  0.74858000  0.64413000  1.0
  O  O793  1  0.13886000  0.35078000  0.02101000  1.0
  O  O794  1  0.17460000  0.40981000  0.95754000  1.0
  O  O795  1  0.68536000  0.59326000  0.81608000  1.0
  O  O796  1  0.71992000  0.68108000  0.70821000  1.0
  O  O797  1  0.74680000  0.61064000  0.76836000  1.0
  O  O798  1  0.39806000  0.94185000  0.43914000  1.0
  O  O799  1  0.43132000  0.87621000  0.50053000  1.0
  O  O800  1  0.30941000  0.88409000  0.47536000  1.0
  O  O801  1  0.31246000  0.96029000  0.38359000  1.0
  O  O802  1  0.44469000  0.52490000  0.80253000  1.0
  O  O803  1  0.36934000  0.55465000  0.75748000  1.0
  O  O804  1  0.48621000  0.37732000  0.93624000  1.0
  O  O805  1  0.34802000  0.81422000  0.51374000  1.0
  O  O806  1  0.40682000  0.77000000  0.55200000  1.0
  O  O807  1  0.69456000  0.78708000  0.51397000  1.0
  O  O808  1  0.46966000  0.79515000  0.49827000  1.0
  O  O809  1  0.32922000  0.47392000  0.79305000  1.0
  O  O810  1  0.04357000  0.47221000  0.79242000  1.0
  O  O811  1  0.75563000  0.78150000  0.47321000  1.0
  O  O812  1  0.40976000  0.55671000  0.69627000  1.0
  O  O813  1  0.37791000  0.71667000  0.53211000  1.0
  O  O814  1  0.05110000  0.55195000  0.69241000  1.0
  O  O815  1  0.74157000  0.56402000  0.43747000  1.0
  O  O816  1  0.69513000  0.57067000  0.49100000  1.0
  O  O817  1  0.82427000  0.58048000  0.48529000  1.0
  O  O818  1  0.77825000  0.60708000  0.52363000  1.0
  O  O819  1  0.65995000  0.65273000  0.49828000  1.0
  O  O820  1  0.67331000  0.73004000  0.47595000  1.0
  O  O821  1  0.74355000  0.68018000  0.54876000  1.0
  O  O822  1  0.71423000  0.61195000  0.55502000  1.0
  O  O823  1  0.83353000  0.60441000  0.39258000  1.0
  O  O824  1  0.42426000  0.48408000  0.66774000  1.0
  O  O825  1  0.35727000  0.50946000  0.62597000  1.0
  O  O826  1  0.33945000  0.48378000  0.71886000  1.0
  O  O827  1  0.05803000  0.44078000  0.57643000  1.0
  O  O828  1  0.09707000  0.50138000  0.57740000  1.0
  O  O829  1  0.08824000  0.40810000  0.81208000  1.0
  O  O830  1  0.97605000  0.49954000  0.57579000  1.0
  O  O831  1  0.01929000  0.53824000  0.60533000  1.0
  O  O832  1  0.13036000  0.47393000  0.66650000  1.0
  O  O833  1  0.12193000  0.47916000  0.73340000  1.0
  O  O834  1  0.09619000  0.55401000  0.63399000  1.0
  O  O835  1  0.96109000  0.40358000  0.59982000  1.0
  O  O836  1  0.48635000  0.52910000  0.44170000  1.0
  O  O837  1  0.38436000  0.70111000  0.44966000  1.0
  O  O838  1  0.44181000  0.64934000  0.49078000  1.0
  O  O839  1  0.46364000  0.73829000  0.47703000  1.0
