# generated using pymatgen
data_Co3H36C24N6O13
_symmetry_space_group_name_H-M   'P 1'
_cell_length_a   32.38380000
_cell_length_b   33.34130000
_cell_length_c   33.34130000
_cell_angle_alpha   120.00000000
_cell_angle_beta   90.00000000
_cell_angle_gamma   90.00000000
_symmetry_Int_Tables_number   1
_chemical_formula_structural   Co3H36C24N6O13
_chemical_formula_sum   'Co36 H432 C288 N72 O156'
_cell_volume   31176.22297280
_cell_formula_units_Z   12
loop_
 _symmetry_equiv_pos_site_id
 _symmetry_equiv_pos_as_xyz
  1  'x, y, z'
loop_
 _atom_site_type_symbol
 _atom_site_label
 _atom_site_symmetry_multiplicity
 _atom_site_fract_x
 _atom_site_fract_y
 _atom_site_fract_z
 _atom_site_occupancy
  Co  Co0  1  0.90099000  0.75635000  0.22030000  1.0
  Co  Co1  1  0.91987000  0.66039000  0.15271000  1.0
  Co  Co2  1  0.90708000  0.72984000  0.11378000  1.0
  Co  Co3  1  0.27474000  0.75411000  0.53711000  1.0
  Co  Co4  1  0.29852000  0.85075000  0.57531000  1.0
  Co  Co5  1  0.23426000  0.82759000  0.63396000  1.0
  Co  Co6  1  0.91824000  0.78546000  0.58994000  1.0
  Co  Co7  1  0.83963000  0.74580000  0.59905000  1.0
  Co  Co8  1  0.90493000  0.77997000  0.68220000  1.0
  Co  Co9  1  0.72886000  0.64076000  0.82911000  1.0
  Co  Co10  1  0.51986000  0.72270000  0.17189000  1.0
  Co  Co11  1  0.53043000  0.81136000  0.26067000  1.0
  Co  Co12  1  0.56849000  0.80470000  0.16947000  1.0
  Co  Co13  1  0.03990000  0.62433000  0.77135000  1.0
  Co  Co14  1  0.09158000  0.55656000  0.79379000  1.0
  Co  Co15  1  0.11981000  0.56527000  0.71450000  1.0
  Co  Co16  1  0.70044000  0.55324000  0.73322000  1.0
  Co  Co17  1  0.69055000  0.54708000  0.81837000  1.0
  Co  Co18  1  0.54300000  0.43357000  0.24436000  1.0
  Co  Co19  1  0.60964000  0.42130000  0.29946000  1.0
  Co  Co20  1  0.73390000  0.15381000  0.38487000  1.0
  Co  Co21  1  0.80712000  0.09294000  0.36659000  1.0
  Co  Co22  1  0.73063000  0.05206000  0.29723000  1.0
  Co  Co23  1  0.54392000  0.33965000  0.24828000  1.0
  Co  Co24  1  0.42463000  0.16707000  0.75534000  1.0
  Co  Co25  1  0.43828000  0.25689000  0.83911000  1.0
  Co  Co26  1  0.42130000  0.17074000  0.85330000  1.0
  Co  Co27  1  0.19484000  0.38469000  0.21632000  1.0
  Co  Co28  1  0.15011000  0.35744000  0.12956000  1.0
  Co  Co29  1  0.23639000  0.30807000  0.12201000  1.0
  Co  Co30  1  0.04745000  0.23835000  0.80455000  1.0
  Co  Co31  1  0.04057000  0.17016000  0.70667000  1.0
  Co  Co32  1  0.06673000  0.13307000  0.77493000  1.0
  Co  Co33  1  0.40355000  0.17592000  0.43435000  1.0
  Co  Co34  1  0.33943000  0.24296000  0.44630000  1.0
  Co  Co35  1  0.38187000  0.18691000  0.34625000  1.0
  H  H36  1  0.98595000  0.87718000  0.54208000  1.0
  H  H37  1  0.99496000  0.81723000  0.50068000  1.0
  H  H38  1  0.96967000  0.91666000  0.50347000  1.0
  H  H39  1  0.99698000  0.86963000  0.45601000  1.0
  H  H40  1  0.96846000  0.78798000  0.42364000  1.0
  H  H41  1  0.92236000  0.78074000  0.44977000  1.0
  H  H42  1  0.87298000  0.85024000  0.36804000  1.0
  H  H43  1  0.91414000  0.88344000  0.36338000  1.0
  H  H44  1  0.90817000  0.77691000  0.37480000  1.0
  H  H45  1  0.88072000  0.82354000  0.42238000  1.0
  H  H46  1  0.90902000  0.90554000  0.45502000  1.0
  H  H47  1  0.95525000  0.91300000  0.42915000  1.0
  H  H48  1  0.49465000  0.67378000  0.23949000  1.0
  H  H49  1  0.54511000  0.68035000  0.22218000  1.0
  H  H50  1  0.54948000  0.64849000  0.29113000  1.0
  H  H51  1  0.29004000  0.65554000  0.36990000  1.0
  H  H52  1  0.32566000  0.63982000  0.40094000  1.0
  H  H53  1  0.21167000  0.65881000  0.42232000  1.0
  H  H54  1  0.81602000  0.64825000  0.95644000  1.0
  H  H55  1  0.76200000  0.63476000  0.94394000  1.0
  H  H56  1  0.79175000  0.64559000  0.08267000  1.0
  H  H57  1  0.77741000  0.66642000  0.02649000  1.0
  H  H58  1  0.66271000  0.79106000  0.27261000  1.0
  H  H59  1  0.67885000  0.80761000  0.23112000  1.0
  H  H60  1  0.72105000  0.83155000  0.32085000  1.0
  H  H61  1  0.73705000  0.84670000  0.27830000  1.0
  H  H62  1  0.68468000  0.89289000  0.25778000  1.0
  H  H63  1  0.63570000  0.90718000  0.28777000  1.0
  H  H64  1  0.66883000  0.95636000  0.36276000  1.0
  H  H65  1  0.71986000  0.91310000  0.38188000  1.0
  H  H66  1  0.76893000  0.89788000  0.35226000  1.0
  H  H67  1  0.15271000  0.90353000  0.59978000  1.0
  H  H68  1  0.17921000  0.89311000  0.54817000  1.0
  H  H69  1  0.12861000  0.97005000  0.58445000  1.0
  H  H70  1  0.17032000  0.96054000  0.54471000  1.0
  H  H71  1  0.94741000  0.67743000  0.66097000  1.0
  H  H72  1  0.92856000  0.64378000  0.68590000  1.0
  H  H73  1  0.00372000  0.63799000  0.67369000  1.0
  H  H74  1  0.74304000  0.69680000  0.48497000  1.0
  H  H75  1  0.72542000  0.67644000  0.52237000  1.0
  H  H76  1  0.72253000  0.64071000  0.41089000  1.0
  H  H77  1  0.52596000  0.80347000  0.40089000  1.0
  H  H78  1  0.54490000  0.85615000  0.40508000  1.0
  H  H79  1  0.43838000  0.80242000  0.37796000  1.0
  H  H80  1  0.45857000  0.80040000  0.42733000  1.0
  H  H81  1  0.50458000  0.86912000  0.48441000  1.0
  H  H82  1  0.51329000  0.91490000  0.47142000  1.0
  H  H83  1  0.39331000  0.93543000  0.55382000  1.0
  H  H84  1  0.36261000  0.91646000  0.50339000  1.0
  H  H85  1  0.46138000  0.93620000  0.53278000  1.0
  H  H86  1  0.44012000  0.93693000  0.48310000  1.0
  H  H87  1  0.39599000  0.87059000  0.42782000  1.0
  H  H88  1  0.38596000  0.82419000  0.43938000  1.0
  H  H89  1  0.09127000  0.69879000  0.92314000  1.0
  H  H90  1  0.03821000  0.71085000  0.91918000  1.0
  H  H91  1  0.09604000  0.69545000  0.99096000  1.0
  H  H92  1  0.04621000  0.72347000  0.00600000  1.0
  H  H93  1  0.98599000  0.68325000  0.95285000  1.0
  H  H94  1  0.07172000  0.63196000  0.00173000  1.0
  H  H95  1  0.06211000  0.68733000  0.05285000  1.0
  H  H96  1  0.96332000  0.87926000  0.24006000  1.0
  H  H97  1  0.97855000  0.85895000  0.18080000  1.0
  H  H98  1  0.87011000  0.87336000  0.22775000  1.0
  H  H99  1  0.89844000  0.92338000  0.26991000  1.0
  H  H100  1  0.95452000  0.95599000  0.24073000  1.0
  H  H101  1  0.96407000  0.92723000  0.17920000  1.0
  H  H102  1  0.89583000  0.94816000  0.16405000  1.0
  H  H103  1  0.83955000  0.91561000  0.19331000  1.0
  H  H104  1  0.83001000  0.94458000  0.25480000  1.0
  H  H105  1  0.44460000  0.94917000  0.71994000  1.0
  H  H106  1  0.31859000  0.91600000  0.74309000  1.0
  H  H107  1  0.29496000  0.96063000  0.73724000  1.0
  H  H108  1  0.39053000  0.92522000  0.75550000  1.0
  H  H109  1  0.25254000  0.66492000  0.59592000  1.0
  H  H110  1  0.28674000  0.70226000  0.64204000  1.0
  H  H111  1  0.17646000  0.72283000  0.62326000  1.0
  H  H112  1  0.17777000  0.66454000  0.61336000  1.0
  H  H113  1  0.22736000  0.64545000  0.65926000  1.0
  H  H114  1  0.26035000  0.69073000  0.70103000  1.0
  H  H115  1  0.13462000  0.72762000  0.77406000  1.0
  H  H116  1  0.09564000  0.71890000  0.73332000  1.0
  H  H117  1  0.20159000  0.67509000  0.73861000  1.0
  H  H118  1  0.20166000  0.73378000  0.74939000  1.0
  H  H119  1  0.15043000  0.75349000  0.70222000  1.0
  H  H120  1  0.11804000  0.70713000  0.66085000  1.0
  H  H121  1  0.94747000  0.95905000  0.63328000  1.0
  H  H122  1  0.02473000  0.95868000  0.64108000  1.0
  H  H123  1  0.00575000  0.88063000  0.70976000  1.0
  H  H124  1  0.96370000  0.91538000  0.74456000  1.0
  H  H125  1  0.04426000  0.92996000  0.69319000  1.0
  H  H126  1  0.91406000  0.93017000  0.68007000  1.0
  H  H127  1  0.79678000  0.82395000  0.76701000  1.0
  H  H128  1  0.76780000  0.83593000  0.72832000  1.0
  H  H129  1  0.79993000  0.71894000  0.70764000  1.0
  H  H130  1  0.78376000  0.75074000  0.76733000  1.0
  H  H131  1  0.72523000  0.80883000  0.78884000  1.0
  H  H132  1  0.70213000  0.81565000  0.74334000  1.0
  H  H133  1  0.64495000  0.69742000  0.76140000  1.0
  H  H134  1  0.66510000  0.66043000  0.70391000  1.0
  H  H135  1  0.65893000  0.76846000  0.76488000  1.0
  H  H136  1  0.67473000  0.73671000  0.70497000  1.0
  H  H137  1  0.73340000  0.67864000  0.68310000  1.0
  H  H138  1  0.75665000  0.67149000  0.72825000  1.0
  H  H139  1  0.49637000  0.68785000  0.02817000  1.0
  H  H140  1  0.49964000  0.74629000  0.03807000  1.0
  H  H141  1  0.57388000  0.66606000  0.04879000  1.0
  H  H142  1  0.55787000  0.63579000  0.98915000  1.0
  H  H143  1  0.53988000  0.67881000  0.95025000  1.0
  H  H144  1  0.54413000  0.74108000  0.98082000  1.0
  H  H145  1  0.68073000  0.70287000  0.96221000  1.0
  H  H146  1  0.68853000  0.65175000  0.96546000  1.0
  H  H147  1  0.60302000  0.70309000  0.92657000  1.0
  H  H148  1  0.61846000  0.73898000  0.98616000  1.0
  H  H149  1  0.63723000  0.69310000  0.03074000  1.0
  H  H150  1  0.40548000  0.95443000  0.27528000  1.0
  H  H151  1  0.55186000  0.94518000  0.23679000  1.0
  H  H152  1  0.54732000  0.95670000  0.29524000  1.0
  H  H153  1  0.46439000  0.92522000  0.30009000  1.0
  H  H154  1  0.78438000  0.81254000  0.21289000  1.0
  H  H155  1  0.79434000  0.81095000  0.15918000  1.0
  H  H156  1  0.77523000  0.71600000  0.18875000  1.0
  H  H157  1  0.73793000  0.76165000  0.21666000  1.0
  H  H158  1  0.71302000  0.80021000  0.16590000  1.0
  H  H159  1  0.73743000  0.77719000  0.11012000  1.0
  H  H160  1  0.64265000  0.66543000  0.09284000  1.0
  H  H161  1  0.64234000  0.66272000  0.14499000  1.0
  H  H162  1  0.66785000  0.74600000  0.10367000  1.0
  H  H163  1  0.70606000  0.70083000  0.08234000  1.0
  H  H164  1  0.72583000  0.66586000  0.12936000  1.0
  H  H165  1  0.70363000  0.68789000  0.18618000  1.0
  H  H166  1  0.02467000  0.71069000  0.63671000  1.0
  H  H167  1  0.00139000  0.67033000  0.58225000  1.0
  H  H168  1  0.03710000  0.79264000  0.62855000  1.0
  H  H169  1  0.07956000  0.76264000  0.63697000  1.0
  H  H170  1  0.09063000  0.67875000  0.57912000  1.0
  H  H171  1  0.05593000  0.65064000  0.53041000  1.0
  H  H172  1  0.14961000  0.72702000  0.49124000  1.0
  H  H173  1  0.13415000  0.78557000  0.52587000  1.0
  H  H174  1  0.12282000  0.66995000  0.50846000  1.0
  H  H175  1  0.07986000  0.69824000  0.49822000  1.0
  H  H176  1  0.06820000  0.78524000  0.55836000  1.0
  H  H177  1  0.10404000  0.81176000  0.60613000  1.0
  H  H178  1  0.49609000  0.63145000  0.27741000  1.0
  H  H179  1  0.59914000  0.62804000  0.22727000  1.0
  H  H180  1  0.21794000  0.62849000  0.36026000  1.0
  H  H181  1  0.16053000  0.59651000  0.38316000  1.0
  H  H182  1  0.83376000  0.59524000  0.87616000  1.0
  H  H183  1  0.81473000  0.59101000  0.06551000  1.0
  H  H184  1  0.75650000  0.60850000  0.00047000  1.0
  H  H185  1  0.85938000  0.64287000  0.65732000  1.0
  H  H186  1  0.84979000  0.61698000  0.59608000  1.0
  H  H187  1  0.99772000  0.61833000  0.61305000  1.0
  H  H188  1  0.68805000  0.62162000  0.44051000  1.0
  H  H189  1  0.99476000  0.62786000  0.90169000  1.0
  H  H190  1  0.98850000  0.59372000  0.01864000  1.0
  H  H191  1  0.02559000  0.62835000  0.06032000  1.0
  H  H192  1  0.96055000  0.62035000  0.96435000  1.0
  H  H193  1  0.00978000  0.59107000  0.94781000  1.0
  H  H194  1  0.63306000  0.63086000  0.99695000  1.0
  H  H195  1  0.83407000  0.62227000  0.73742000  1.0
  H  H196  1  0.88393000  0.62183000  0.79105000  1.0
  H  H197  1  0.84149000  0.60237000  0.81156000  1.0
  H  H198  1  0.53365000  0.58043000  0.29915000  1.0
  H  H199  1  0.58104000  0.59695000  0.16822000  1.0
  H  H200  1  0.27675000  0.56886000  0.32541000  1.0
  H  H201  1  0.30852000  0.56023000  0.36495000  1.0
  H  H202  1  0.19303000  0.58704000  0.42167000  1.0
  H  H203  1  0.86598000  0.57984000  0.93550000  1.0
  H  H204  1  0.85969000  0.55534000  0.99309000  1.0
  H  H205  1  0.89264000  0.56493000  0.62922000  1.0
  H  H206  1  0.93633000  0.55996000  0.21953000  1.0
  H  H207  1  0.01376000  0.57429000  0.18428000  1.0
  H  H208  1  0.75143000  0.56303000  0.36391000  1.0
  H  H209  1  0.69597000  0.56212000  0.35877000  1.0
  H  H210  1  0.71938000  0.59423000  0.49239000  1.0
  H  H211  1  0.77484000  0.59515000  0.49772000  1.0
  H  H212  1  0.81809000  0.56816000  0.68840000  1.0
  H  H213  1  0.90407000  0.57359000  0.70615000  1.0
  H  H214  1  0.90872000  0.58617000  0.83552000  1.0
  H  H215  1  0.61870000  0.54590000  0.18989000  1.0
  H  H216  1  0.56598000  0.52776000  0.17305000  1.0
  H  H217  1  0.51297000  0.54934000  0.24124000  1.0
  H  H218  1  0.14372000  0.51882000  0.35099000  1.0
  H  H219  1  0.25054000  0.52823000  0.38691000  1.0
  H  H220  1  0.82046000  0.53456000  0.84923000  1.0
  H  H221  1  0.84372000  0.52263000  0.90975000  1.0
  H  H222  1  0.80545000  0.54241000  0.98066000  1.0
  H  H223  1  0.89060000  0.54910000  0.56914000  1.0
  H  H224  1  0.03747000  0.54884000  0.60087000  1.0
  H  H225  1  0.96560000  0.54204000  0.56145000  1.0
  H  H226  1  0.90198000  0.53951000  0.17075000  1.0
  H  H227  1  0.00789000  0.53523000  0.20659000  1.0
  H  H228  1  0.04098000  0.51253000  0.11063000  1.0
  H  H229  1  0.07020000  0.51682000  0.15865000  1.0
  H  H230  1  0.78286000  0.53531000  0.41622000  1.0
  H  H231  1  0.25337000  0.53557000  0.64862000  1.0
  H  H232  1  0.87615000  0.52039000  0.67059000  1.0
  H  H233  1  0.96152000  0.53066000  0.81539000  1.0
  H  H234  1  0.88100000  0.53309000  0.79873000  1.0
  H  H235  1  0.70719000  0.48874000  0.58522000  1.0
  H  H236  1  0.61578000  0.49700000  0.22251000  1.0
  H  H237  1  0.18399000  0.49024000  0.36461000  1.0
  H  H238  1  0.25705000  0.49779000  0.32486000  1.0
  H  H239  1  0.16021000  0.50699000  0.88016000  1.0
  H  H240  1  0.11920000  0.49126000  0.92835000  1.0
  H  H241  1  0.01320000  0.50892000  0.61434000  1.0
  H  H242  1  0.94619000  0.50853000  0.58630000  1.0
  H  H243  1  0.74802000  0.51638000  0.44566000  1.0
  H  H244  1  0.64206000  0.49358000  0.90756000  1.0
  H  H245  1  0.21436000  0.50892000  0.60448000  1.0
  H  H246  1  0.39151000  0.49653000  0.32382000  1.0
  H  H247  1  0.32743000  0.49489000  0.28278000  1.0
  H  H248  1  0.37261000  0.48353000  0.24698000  1.0
  H  H249  1  0.96865000  0.48774000  0.75630000  1.0
  H  H250  1  0.90316000  0.48528000  0.71451000  1.0
  H  H251  1  0.94498000  0.50713000  0.69492000  1.0
  H  H252  1  0.56130000  0.48638000  0.21907000  1.0
  H  H253  1  0.04625000  0.46827000  0.91617000  1.0
  H  H254  1  0.95552000  0.47027000  0.16812000  1.0
  H  H255  1  0.92642000  0.46548000  0.11973000  1.0
  H  H256  1  0.74914000  0.48103000  0.33646000  1.0
  H  H257  1  0.58207000  0.48595000  0.94161000  1.0
  H  H258  1  0.51150000  0.47173000  0.91097000  1.0
  H  H259  1  0.30473000  0.47878000  0.62201000  1.0
  H  H260  1  0.29622000  0.46652000  0.21064000  1.0
  H  H261  1  0.75505000  0.46247000  0.58560000  1.0
  H  H262  1  0.65927000  0.43849000  0.53164000  1.0
  H  H263  1  0.16960000  0.45228000  0.82936000  1.0
  H  H264  1  0.48128000  0.44552000  0.44018000  1.0
  H  H265  1  0.07895000  0.44200000  0.07476000  1.0
  H  H266  1  0.98850000  0.44683000  0.07170000  1.0
  H  H267  1  0.72622000  0.46003000  0.37170000  1.0
  H  H268  1  0.65198000  0.44081000  0.85557000  1.0
  H  H269  1  0.27782000  0.44844000  0.56741000  1.0
  H  H270  1  0.43984000  0.45562000  0.34069000  1.0
  H  H271  1  0.35622000  0.45230000  0.31887000  1.0
  H  H272  1  0.68178000  0.97385000  0.32144000  1.0
  H  H273  1  0.18048000  0.43789000  0.62061000  1.0
  H  H274  1  0.52348000  0.43608000  0.93613000  1.0
  H  H275  1  0.32457000  0.42127000  0.16328000  1.0
  H  H276  1  0.70725000  0.41690000  0.50051000  1.0
  H  H277  1  0.09057000  0.42301000  0.78505000  1.0
  H  H278  1  0.13614000  0.43208000  0.89272000  1.0
  H  H279  1  0.07468000  0.43628000  0.93766000  1.0
  H  H280  1  0.02919000  0.42763000  0.83020000  1.0
  H  H281  1  0.55109000  0.43013000  0.42041000  1.0
  H  H282  1  0.41732000  0.41686000  0.45781000  1.0
  H  H283  1  0.25824000  0.41056000  0.07311000  1.0
  H  H284  1  0.58436000  0.42327000  0.79533000  1.0
  H  H285  1  0.59493000  0.42518000  0.90837000  1.0
  H  H286  1  0.51281000  0.43384000  0.82306000  1.0
  H  H287  1  0.30331000  0.41133000  0.63226000  1.0
  H  H288  1  0.20492000  0.42404000  0.56660000  1.0
  H  H289  1  0.93676000  0.97574000  0.73260000  1.0
  H  H290  1  0.20264000  0.97552000  0.67475000  1.0
  H  H291  1  0.14843000  0.97892000  0.66430000  1.0
  H  H292  1  0.01579000  0.97554000  0.74069000  1.0
  H  H293  1  0.65359000  0.28240000  0.42714000  1.0
  H  H294  1  0.65702000  0.27110000  0.47433000  1.0
  H  H295  1  0.65076000  0.36225000  0.46170000  1.0
  H  H296  1  0.63772000  0.36095000  0.51369000  1.0
  H  H297  1  0.68992000  0.32660000  0.54503000  1.0
  H  H298  1  0.73775000  0.30471000  0.51385000  1.0
  H  H299  1  0.74634000  0.38150000  0.58424000  1.0
  H  H300  1  0.75962000  0.38227000  0.53210000  1.0
  H  H301  1  0.46876000  0.17822000  0.48310000  1.0
  H  H302  1  0.48964000  0.21852000  0.53897000  1.0
  H  H303  1  0.44642000  0.11729000  0.49323000  1.0
  H  H304  1  0.47684000  0.14397000  0.54562000  1.0
  H  H305  1  0.45796000  0.22633000  0.60811000  1.0
  H  H306  1  0.41539000  0.25415000  0.59677000  1.0
  H  H307  1  0.35028000  0.14100000  0.61787000  1.0
  H  H308  1  0.38893000  0.09863000  0.60976000  1.0
  H  H309  1  0.39571000  0.22595000  0.64927000  1.0
  H  H310  1  0.36583000  0.19873000  0.59657000  1.0
  H  H311  1  0.38451000  0.11668000  0.53513000  1.0
  H  H312  1  0.42728000  0.08898000  0.54639000  1.0
  H  H313  1  0.11867000  0.39098000  0.80665000  1.0
  H  H314  1  0.01928000  0.38488000  0.91143000  1.0
  H  H315  1  0.99140000  0.39610000  0.87131000  1.0
  H  H316  1  0.04572000  0.36837000  0.79443000  1.0
  H  H317  1  0.73015000  0.00152000  0.40387000  1.0
  H  H318  1  0.77977000  0.97662000  0.38464000  1.0
  H  H319  1  0.56721000  0.37183000  0.39979000  1.0
  H  H320  1  0.51584000  0.30740000  0.34385000  1.0
  H  H321  1  0.51156000  0.32426000  0.40409000  1.0
  H  H322  1  0.49195000  0.40620000  0.46136000  1.0
  H  H323  1  0.36587000  0.35988000  0.43264000  1.0
  H  H324  1  0.37303000  0.32993000  0.37078000  1.0
  H  H325  1  0.42031000  0.40189000  0.39787000  1.0
  H  H326  1  0.44143000  0.31806000  0.33829000  1.0
  H  H327  1  0.45150000  0.27908000  0.35992000  1.0
  H  H328  1  0.30864000  0.25064000  0.85799000  1.0
  H  H329  1  0.30939000  0.22318000  0.89250000  1.0
  H  H330  1  0.26155000  0.31169000  0.89553000  1.0
  H  H331  1  0.24567000  0.27671000  0.92018000  1.0
  H  H332  1  0.30146000  0.26611000  0.97288000  1.0
  H  H333  1  0.35046000  0.29437000  0.97889000  1.0
  H  H334  1  0.21065000  0.39975000  0.04274000  1.0
  H  H335  1  0.30545000  0.33770000  0.04744000  1.0
  H  H336  1  0.31781000  0.37127000  0.02035000  1.0
  H  H337  1  0.26580000  0.38124000  0.97223000  1.0
  H  H338  1  0.21607000  0.35343000  0.96334000  1.0
  H  H339  1  0.15937000  0.11590000  0.64606000  1.0
  H  H340  1  0.18140000  0.12198000  0.69773000  1.0
  H  H341  1  0.14527000  0.04103000  0.58361000  1.0
  H  H342  1  0.19902000  0.03785000  0.59641000  1.0
  H  H343  1  0.21733000  0.04725000  0.67380000  1.0
  H  H344  1  0.17619000  0.05637000  0.71396000  1.0
  H  H345  1  0.05017000  0.39280000  0.06634000  1.0
  H  H346  1  0.98269000  0.40818000  0.09460000  1.0
  H  H347  1  0.88650000  0.05538000  0.45931000  1.0
  H  H348  1  0.91701000  0.06088000  0.41788000  1.0
  H  H349  1  0.87477000  0.13469000  0.53892000  1.0
  H  H350  1  0.91370000  0.09423000  0.53507000  1.0
  H  H351  1  0.97422000  0.07829000  0.47952000  1.0
  H  H352  1  0.97494000  0.10863000  0.44732000  1.0
  H  H353  1  0.03421000  0.19398000  0.59103000  1.0
  H  H354  1  0.98874000  0.22968000  0.61139000  1.0
  H  H355  1  0.02290000  0.14302000  0.51328000  1.0
  H  H356  1  0.98363000  0.18363000  0.51806000  1.0
  H  H357  1  0.92402000  0.19920000  0.57311000  1.0
  H  H358  1  0.92309000  0.16911000  0.60544000  1.0
  H  H359  1  0.59612000  0.38734000  0.82014000  1.0
  H  H360  1  0.46103000  0.40518000  0.89491000  1.0
  H  H361  1  0.45808000  0.39212000  0.83656000  1.0
  H  H362  1  0.52542000  0.37304000  0.78992000  1.0
  H  H363  1  0.25275000  0.30049000  0.55946000  1.0
  H  H364  1  0.28947000  0.33151000  0.60504000  1.0
  H  H365  1  0.20135000  0.35608000  0.57665000  1.0
  H  H366  1  0.22687000  0.38671000  0.63213000  1.0
  H  H367  1  0.32554000  0.39638000  0.57691000  1.0
  H  H368  1  0.85965000  0.03679000  0.22668000  1.0
  H  H369  1  0.82610000  0.98839000  0.19486000  1.0
  H  H370  1  0.92360000  0.99870000  0.20627000  1.0
  H  H371  1  0.65353000  0.10771000  0.23963000  1.0
  H  H372  1  0.62920000  0.14459000  0.29351000  1.0
  H  H373  1  0.69216000  0.14073000  0.20125000  1.0
  H  H374  1  0.63845000  0.15717000  0.20608000  1.0
  H  H375  1  0.61001000  0.21134000  0.28828000  1.0
  H  H376  1  0.64561000  0.22982000  0.33594000  1.0
  H  H377  1  0.69301000  0.30796000  0.25991000  1.0
  H  H378  1  0.67099000  0.27839000  0.20279000  1.0
  H  H379  1  0.63293000  0.29060000  0.31503000  1.0
  H  H380  1  0.68656000  0.27406000  0.30941000  1.0
  H  H381  1  0.71475000  0.22072000  0.22951000  1.0
  H  H382  1  0.68042000  0.20113000  0.18057000  1.0
  H  H383  1  0.53720000  0.23793000  0.92903000  1.0
  H  H384  1  0.52158000  0.29671000  0.94871000  1.0
  H  H385  1  0.55797000  0.24558000  0.99970000  1.0
  H  H386  1  0.55275000  0.30738000  0.02465000  1.0
  H  H387  1  0.48309000  0.33945000  0.02096000  1.0
  H  H388  1  0.44101000  0.29943000  0.99357000  1.0
  H  H389  1  0.45248000  0.33818000  0.14593000  1.0
  H  H390  1  0.47694000  0.28379000  0.12849000  1.0
  H  H391  1  0.43638000  0.33947000  0.07870000  1.0
  H  H392  1  0.44078000  0.27755000  0.05351000  1.0
  H  H393  1  0.51182000  0.24488000  0.05715000  1.0
  H  H394  1  0.55322000  0.28577000  0.08507000  1.0
  H  H395  1  0.47421000  0.02877000  0.71439000  1.0
  H  H396  1  0.48307000  0.03763000  0.77172000  1.0
  H  H397  1  0.39228000  0.03703000  0.70083000  1.0
  H  H398  1  0.41357000  0.97942000  0.67263000  1.0
  H  H399  1  0.44499000  0.98503000  0.78222000  1.0
  H  H400  1  0.37005000  0.98328000  0.78699000  1.0
  H  H401  1  0.33757000  0.01595000  0.73680000  1.0
  H  H402  1  0.33748000  0.97806000  0.67507000  1.0
  H  H403  1  0.17447000  0.19639000  0.00201000  1.0
  H  H404  1  0.14310000  0.19474000  0.04469000  1.0
  H  H405  1  0.14280000  0.26415000  0.98340000  1.0
  H  H406  1  0.14114000  0.20323000  0.94129000  1.0
  H  H407  1  0.10109000  0.15012000  0.96194000  1.0
  H  H408  1  0.07545000  0.17612000  0.01742000  1.0
  H  H409  1  0.99612000  0.17822000  0.90304000  1.0
  H  H410  1  0.00556000  0.23968000  0.92944000  1.0
  H  H411  1  0.02684000  0.15793000  0.95355000  1.0
  H  H412  1  0.02785000  0.21906000  0.99542000  1.0
  H  H413  1  0.06807000  0.27213000  0.97569000  1.0
  H  H414  1  0.09373000  0.24695000  0.92039000  1.0
  H  H415  1  0.95615000  0.05515000  0.66643000  1.0
  H  H416  1  0.99879000  0.02234000  0.63233000  1.0
  H  H417  1  0.91820000  0.00417000  0.68027000  1.0
  H  H418  1  0.04854000  0.00377000  0.69298000  1.0
  H  H419  1  0.36415000  0.03479000  0.33351000  1.0
  H  H420  1  0.37072000  0.03697000  0.28120000  1.0
  H  H421  1  0.40904000  0.98298000  0.33761000  1.0
  H  H422  1  0.42990000  0.99718000  0.23534000  1.0
  H  H423  1  0.45078000  0.05467000  0.27032000  1.0
  H  H424  1  0.50501000  0.99519000  0.23060000  1.0
  H  H425  1  0.51026000  0.02535000  0.29255000  1.0
  H  H426  1  0.48437000  0.98304000  0.33558000  1.0
  H  H427  1  0.29879000  0.26668000  0.20115000  1.0
  H  H428  1  0.30139000  0.32519000  0.24730000  1.0
  H  H429  1  0.22525000  0.22602000  0.21076000  1.0
  H  H430  1  0.27726000  0.21012000  0.21638000  1.0
  H  H431  1  0.32144000  0.27607000  0.28541000  1.0
  H  H432  1  0.29561000  0.33091000  0.31985000  1.0
  H  H433  1  0.23258000  0.22684000  0.35979000  1.0
  H  H434  1  0.24683000  0.17013000  0.31287000  1.0
  H  H435  1  0.29750000  0.28557000  0.35905000  1.0
  H  H436  1  0.24517000  0.29569000  0.34832000  1.0
  H  H437  1  0.20553000  0.23352000  0.28560000  1.0
  H  H438  1  0.22953000  0.17813000  0.24890000  1.0
  H  H439  1  0.62616000  0.04761000  0.37801000  1.0
  H  H440  1  0.63573000  0.09913000  0.43319000  1.0
  H  H441  1  0.56221000  0.05445000  0.35140000  1.0
  H  H442  1  0.54943000  0.09762000  0.41010000  1.0
  H  H443  1  0.59283000  0.16825000  0.45069000  1.0
  H  H444  1  0.63637000  0.17493000  0.42108000  1.0
  H  H445  1  0.51633000  0.22870000  0.38925000  1.0
  H  H446  1  0.51647000  0.17820000  0.33329000  1.0
  H  H447  1  0.57777000  0.22310000  0.42382000  1.0
  H  H448  1  0.59215000  0.18140000  0.36521000  1.0
  H  H449  1  0.54624000  0.10715000  0.32244000  1.0
  H  H450  1  0.50310000  0.10300000  0.35439000  1.0
  H  H451  1  0.42563000  0.39553000  0.31519000  1.0
  H  H452  1  0.41570000  0.35703000  0.22187000  1.0
  H  H453  1  0.37058000  0.36913000  0.25784000  1.0
  H  H454  1  0.38733000  0.39908000  0.18535000  1.0
  H  H455  1  0.35163000  0.35546000  0.18080000  1.0
  H  H456  1  0.30894000  0.09859000  0.73452000  1.0
  H  H457  1  0.31280000  0.08936000  0.78297000  1.0
  H  H458  1  0.28881000  0.18582000  0.75938000  1.0
  H  H459  1  0.24940000  0.14175000  0.73594000  1.0
  H  H460  1  0.23034000  0.10157000  0.77993000  1.0
  H  H461  1  0.25784000  0.11662000  0.83278000  1.0
  H  H462  1  0.16434000  0.23207000  0.87650000  1.0
  H  H463  1  0.17439000  0.25902000  0.84309000  1.0
  H  H464  1  0.18867000  0.15188000  0.84895000  1.0
  H  H465  1  0.22927000  0.19470000  0.87209000  1.0
  H  H466  1  0.24576000  0.23732000  0.82490000  1.0
  H  H467  1  0.21725000  0.21782000  0.77215000  1.0
  C  C468  1  0.91731000  0.81305000  0.31340000  1.0
  C  C469  1  0.83469000  0.76938000  0.17256000  1.0
  C  C470  1  0.93486000  0.81613000  0.18877000  1.0
  C  C471  1  0.96527000  0.65601000  0.07602000  1.0
  C  C472  1  0.85636000  0.64879000  0.08998000  1.0
  C  C473  1  0.28749000  0.69593000  0.44431000  1.0
  C  C474  1  0.18836000  0.76797000  0.54925000  1.0
  C  C475  1  0.25647000  0.73591000  0.61129000  1.0
  C  C476  1  0.29852000  0.89519000  0.67501000  1.0
  C  C477  1  0.36125000  0.87343000  0.53445000  1.0
  C  C478  1  0.21757000  0.88802000  0.59635000  1.0
  C  C479  1  0.06270000  0.64767000  0.86245000  1.0
  C  C480  1  0.10792000  0.66011000  0.74011000  1.0
  C  C481  1  0.94242000  0.83265000  0.54588000  1.0
  C  C482  1  0.97181000  0.73492000  0.61509000  1.0
  C  C483  1  0.94795000  0.85357000  0.68049000  1.0
  C  C484  1  0.81806000  0.79129000  0.69630000  1.0
  C  C485  1  0.79107000  0.68777000  0.52196000  1.0
  C  C486  1  0.87273000  0.68594000  0.62822000  1.0
  C  C487  1  0.68861000  0.64890000  0.75779000  1.0
  C  C488  1  0.67828000  0.63839000  0.89771000  1.0
  C  C489  1  0.50259000  0.63693000  0.16699000  1.0
  C  C490  1  0.60404000  0.71553000  0.14679000  1.0
  C  C491  1  0.52059000  0.73938000  0.09461000  1.0
  C  C492  1  0.53379000  0.88693000  0.24178000  1.0
  C  C493  1  0.51350000  0.81273000  0.34264000  1.0
  C  C494  1  0.61550000  0.81861000  0.24924000  1.0
  C  C495  1  0.90677000  0.84998000  0.36158000  1.0
  C  C496  1  0.91185000  0.81109000  0.40680000  1.0
  C  C497  1  0.93880000  0.88914000  0.43794000  1.0
  C  C498  1  0.97048000  0.84406000  0.51743000  1.0
  C  C499  1  0.96592000  0.88237000  0.47161000  1.0
  C  C500  1  0.93873000  0.80450000  0.44080000  1.0
  C  C501  1  0.52002000  0.65483000  0.21470000  1.0
  C  C502  1  0.29327000  0.65065000  0.40045000  1.0
  C  C503  1  0.78383000  0.62931000  0.00155000  1.0
  C  C504  1  0.68650000  0.94634000  0.33040000  1.0
  C  C505  1  0.73563000  0.90355000  0.34856000  1.0
  C  C506  1  0.65962000  0.81795000  0.26235000  1.0
  C  C507  1  0.71801000  0.85799000  0.31000000  1.0
  C  C508  1  0.66899000  0.90116000  0.29080000  1.0
  C  C509  1  0.18189000  0.91044000  0.58656000  1.0
  C  C510  1  0.94152000  0.64188000  0.65402000  1.0
  C  C511  1  0.75026000  0.67226000  0.49745000  1.0
  C  C512  1  0.38411000  0.90406000  0.52092000  1.0
  C  C513  1  0.45214000  0.91407000  0.49594000  1.0
  C  C514  1  0.40933000  0.85007000  0.44273000  1.0
  C  C515  1  0.51819000  0.83187000  0.39378000  1.0
  C  C516  1  0.44763000  0.82394000  0.41483000  1.0
  C  C517  1  0.49066000  0.88850000  0.46853000  1.0
  C  C518  1  0.99841000  0.63038000  0.04095000  1.0
  C  C519  1  0.05290000  0.66422000  0.01616000  1.0
  C  C520  1  0.06016000  0.68265000  0.91312000  1.0
  C  C521  1  0.06218000  0.68929000  0.98928000  1.0
  C  C522  1  0.00434000  0.65066000  0.93828000  1.0
  C  C523  1  0.90778000  0.96656000  0.20027000  1.0
  C  C524  1  0.85428000  0.93568000  0.22807000  1.0
  C  C525  1  0.95193000  0.86332000  0.20374000  1.0
  C  C526  1  0.88640000  0.90515000  0.23375000  1.0
  C  C527  1  0.93981000  0.93608000  0.20594000  1.0
  C  C528  1  0.31708000  0.93125000  0.72004000  1.0
  C  C529  1  0.38513000  0.95738000  0.75402000  1.0
  C  C530  1  0.12300000  0.70204000  0.73896000  1.0
  C  C531  1  0.19692000  0.69684000  0.72237000  1.0
  C  C532  1  0.14886000  0.71544000  0.67779000  1.0
  C  C533  1  0.25600000  0.70040000  0.62635000  1.0
  C  C534  1  0.18164000  0.70172000  0.64010000  1.0
  C  C535  1  0.22940000  0.68331000  0.68441000  1.0
  C  C536  1  0.97506000  0.89481000  0.70825000  1.0
  C  C537  1  0.01646000  0.95244000  0.70236000  1.0
  C  C538  1  0.94178000  0.95250000  0.69474000  1.0
  C  C539  1  0.67342000  0.68063000  0.74132000  1.0
  C  C540  1  0.68576000  0.75225000  0.74142000  1.0
  C  C541  1  0.74157000  0.69683000  0.72059000  1.0
  C  C542  1  0.78387000  0.80807000  0.73131000  1.0
  C  C543  1  0.77297000  0.73517000  0.73082000  1.0
  C  C544  1  0.71708000  0.79043000  0.75132000  1.0
  C  C545  1  0.66933000  0.66681000  0.94850000  1.0
  C  C546  1  0.60286000  0.70597000  0.96124000  1.0
  C  C547  1  0.62018000  0.66396000  0.00193000  1.0
  C  C548  1  0.51562000  0.71979000  0.04339000  1.0
  C  C549  1  0.57494000  0.66666667  0.01585667  1.0
  C  C550  1  0.55783000  0.70879000  0.97701000  1.0
  C  C551  1  0.53259000  0.93828000  0.26036000  1.0
  C  C552  1  0.46747000  0.95973000  0.30293000  1.0
  C  C553  1  0.64279000  0.68706000  0.13127000  1.0
  C  C554  1  0.69353000  0.73125000  0.11415000  1.0
  C  C555  1  0.71398000  0.69758000  0.16036000  1.0
  C  C556  1  0.79270000  0.78924000  0.17590000  1.0
  C  C557  1  0.74874000  0.73332000  0.18251000  1.0
  C  C558  1  0.72670000  0.76846000  0.13651000  1.0
  C  C559  1  0.14631000  0.75539000  0.52789000  1.0
  C  C560  1  0.09884000  0.69721000  0.52557000  1.0
  C  C561  1  0.08803000  0.77891000  0.58196000  1.0
  C  C562  1  0.01070000  0.70709000  0.60453000  1.0
  C  C563  1  0.06054000  0.76499000  0.61037000  1.0
  C  C564  1  0.07132000  0.68399000  0.55446000  1.0
  C  C565  1  0.93288000  0.60087000  0.18591000  1.0
  C  C566  1  0.52846000  0.62118000  0.26566000  1.0
  C  C567  1  0.57687000  0.60132000  0.20329000  1.0
  C  C568  1  0.22138000  0.62549000  0.39192000  1.0
  C  C569  1  0.81863000  0.62331000  0.06379000  1.0
  C  C570  1  0.79093000  0.62420000  0.95390000  1.0
  C  C571  1  0.98342000  0.61789000  0.64321000  1.0
  C  C572  1  0.87163000  0.63913000  0.62438000  1.0
  C  C573  1  0.71908000  0.61619000  0.42411000  1.0
  C  C574  1  0.99450000  0.62567000  0.96525000  1.0
  C  C575  1  0.86773000  0.59053000  0.78704000  1.0
  C  C576  1  0.00566000  0.54899000  0.78072000  1.0
  C  C577  1  0.04151000  0.56511000  0.67195000  1.0
  C  C578  1  0.78156000  0.58892000  0.74814000  1.0
  C  C579  1  0.77099000  0.57773000  0.85289000  1.0
  C  C580  1  0.53685000  0.57487000  0.26356000  1.0
  C  C581  1  0.19238000  0.58770000  0.38859000  1.0
  C  C582  1  0.27684000  0.56893000  0.35888000  1.0
  C  C583  1  0.83093000  0.56567000  0.98237000  1.0
  C  C584  1  0.80948000  0.57036000  0.87333000  1.0
  C  C585  1  0.83792000  0.55993000  0.93443000  1.0
  C  C586  1  0.90896000  0.56801000  0.60151000  1.0
  C  C587  1  0.93286000  0.55512000  0.18414000  1.0
  C  C588  1  0.74901000  0.59015000  0.47370000  1.0
  C  C589  1  0.72185000  0.56691000  0.38261000  1.0
  C  C590  1  0.89738000  0.56292000  0.79970000  1.0
  C  C591  1  0.82274000  0.58673000  0.72660000  1.0
  C  C592  1  0.19568000  0.53001000  0.67455000  1.0
  C  C593  1  0.58591000  0.55492000  0.20042000  1.0
  C  C594  1  0.24756000  0.53126000  0.35523000  1.0
  C  C595  1  0.01814000  0.54641000  0.62720000  1.0
  C  C596  1  0.95123000  0.54432000  0.59291000  1.0
  C  C597  1  0.00665000  0.53795000  0.17463000  1.0
  C  C598  1  0.75168000  0.54079000  0.43232000  1.0
  C  C599  1  0.96602000  0.52579000  0.78014000  1.0
  C  C600  1  0.91818000  0.51729000  0.71891000  1.0
  C  C601  1  0.88764000  0.54422000  0.70617000  1.0
  C  C602  1  0.58933000  0.51353000  0.28644000  1.0
  C  C603  1  0.13725000  0.50330000  0.81955000  1.0
  C  C604  1  0.63930000  0.50031000  0.84836000  1.0
  C  C605  1  0.58589000  0.51129000  0.24046000  1.0
  C  C606  1  0.17581000  0.50523000  0.34237000  1.0
  C  C607  1  0.03988000  0.50668000  0.14073000  1.0
  C  C608  1  0.22711000  0.51076000  0.63639000  1.0
  C  C609  1  0.68337000  0.46997000  0.32964000  1.0
  C  C610  1  0.17581000  0.46856000  0.29237000  1.0
  C  C611  1  0.71570000  0.47986000  0.64342000  1.0
  C  C612  1  0.72144000  0.46281000  0.59280000  1.0
  C  C613  1  0.14613000  0.48011000  0.84714000  1.0
  C  C614  1  0.95672000  0.47575000  0.13779000  1.0
  C  C615  1  0.72202000  0.48457000  0.35854000  1.0
  C  C616  1  0.63161000  0.47189000  0.87105000  1.0
  C  C617  1  0.35225000  0.46933000  0.26385000  1.0
  C  C618  1  0.37715000  0.46273000  0.29915000  1.0
  C  C619  1  0.07025000  0.44113000  0.90729000  1.0
  C  C620  1  0.11135000  0.45733000  0.89761000  1.0
  C  C621  1  0.98979000  0.44443000  0.10385000  1.0
  C  C622  1  0.53030000  0.44185000  0.90671000  1.0
  C  C623  1  0.57624000  0.45332000  0.90851000  1.0
  C  C624  1  0.28106000  0.45186000  0.60227000  1.0
  C  C625  1  0.30751000  0.43027000  0.19572000  1.0
  C  C626  1  0.47924000  0.41029000  0.28645000  1.0
  C  C627  1  0.09524000  0.41613000  0.11962000  1.0
  C  C628  1  0.68379000  0.41188000  0.52208000  1.0
  C  C629  1  0.09485000  0.41828000  0.81550000  1.0
  C  C630  1  0.47929000  0.40880000  0.43167000  1.0
  C  C631  1  0.06333000  0.42640000  0.09346000  1.0
  C  C632  1  0.57747000  0.41743000  0.82468000  1.0
  C  C633  1  0.21034000  0.42859000  0.60165000  1.0
  C  C634  1  0.43712000  0.42239000  0.30739000  1.0
  C  C635  1  0.16171000  0.97780000  0.58195000  1.0
  C  C636  1  0.02049000  0.98187000  0.67909000  1.0
  C  C637  1  0.70692000  0.24550000  0.42477000  1.0
  C  C638  1  0.67565000  0.08838000  0.37693000  1.0
  C  C639  1  0.69167000  0.12837000  0.29886000  1.0
  C  C640  1  0.81389000  0.03095000  0.26796000  1.0
  C  C641  1  0.86070000  0.09851000  0.43535000  1.0
  C  C642  1  0.75978000  0.01702000  0.35583000  1.0
  C  C643  1  0.51301000  0.34501000  0.17174000  1.0
  C  C644  1  0.62946000  0.32376000  0.25364000  1.0
  C  C645  1  0.55923000  0.38999000  0.34728000  1.0
  C  C646  1  0.39097000  0.15945000  0.67546000  1.0
  C  C647  1  0.35379000  0.14009000  0.78626000  1.0
  C  C648  1  0.45139000  0.09291000  0.77082000  1.0
  C  C649  1  0.47662000  0.24366000  0.90913000  1.0
  C  C650  1  0.47404000  0.33501000  0.84525000  1.0
  C  C651  1  0.36731000  0.24883000  0.88286000  1.0
  C  C652  1  0.27080000  0.39944000  0.18457000  1.0
  C  C653  1  0.24776000  0.31082000  0.20723000  1.0
  C  C654  1  0.16724000  0.26095000  0.06553000  1.0
  C  C655  1  0.21787000  0.36356000  0.07972000  1.0
  C  C656  1  0.01733000  0.32763000  0.84397000  1.0
  C  C657  1  0.12530000  0.20969000  0.81844000  1.0
  C  C658  1  0.03039000  0.19697000  0.86093000  1.0
  C  C659  1  0.01350000  0.08324000  0.69712000  1.0
  C  C660  1  0.00290000  0.19010000  0.64452000  1.0
  C  C661  1  0.11591000  0.12330000  0.69758000  1.0
  C  C662  1  0.44077000  0.24466000  0.51460000  1.0
  C  C663  1  0.46489000  0.18588000  0.37727000  1.0
  C  C664  1  0.38887000  0.09812000  0.34451000  1.0
  C  C665  1  0.29582000  0.20577000  0.35920000  1.0
  C  C666  1  0.31220000  0.30159000  0.53509000  1.0
  C  C667  1  0.37690000  0.28791000  0.40287000  1.0
  C  C668  1  0.73356000  0.37917000  0.55223000  1.0
  C  C669  1  0.67522000  0.28151000  0.45263000  1.0
  C  C670  1  0.66366000  0.36436000  0.49361000  1.0
  C  C671  1  0.71344000  0.33151000  0.52345000  1.0
  C  C672  1  0.38317000  0.13633000  0.62441000  1.0
  C  C673  1  0.39712000  0.20104000  0.61150000  1.0
  C  C674  1  0.41507000  0.12280000  0.55263000  1.0
  C  C675  1  0.46057000  0.20608000  0.51853000  1.0
  C  C676  1  0.44538000  0.14197000  0.53116000  1.0
  C  C677  1  0.42755000  0.22030000  0.59033000  1.0
  C  C678  1  0.01924000  0.37891000  0.87548000  1.0
  C  C679  1  0.05379000  0.40216000  0.82521000  1.0
  C  C680  1  0.75008000  0.98375000  0.37254000  1.0
  C  C681  1  0.38438000  0.33271000  0.40363000  1.0
  C  C682  1  0.43365000  0.39480000  0.42453000  1.0
  C  C683  1  0.45321000  0.31573000  0.36847000  1.0
  C  C684  1  0.54632000  0.39372000  0.39219000  1.0
  C  C685  1  0.49872000  0.33000000  0.37635000  1.0
  C  C686  1  0.23591000  0.38268000  0.05137000  1.0
  C  C687  1  0.30030000  0.34060000  0.01604000  1.0
  C  C688  1  0.24956000  0.35008000  0.96847000  1.0
  C  C689  1  0.32158000  0.25311000  0.88999000  1.0
  C  C690  1  0.26532000  0.30653000  0.92578000  1.0
  C  C691  1  0.31677000  0.29662000  0.97404000  1.0
  C  C692  1  0.18018000  0.98629000  0.65674000  1.0
  C  C693  1  0.15588000  0.10497000  0.67246000  1.0
  C  C694  1  0.16686000  0.02992000  0.60214000  1.0
  C  C695  1  0.18460000  0.03867000  0.67665000  1.0
  C  C696  1  0.00165000  0.19519000  0.60230000  1.0
  C  C697  1  0.98945000  0.15139000  0.51946000  1.0
  C  C698  1  0.93245000  0.16628000  0.57207000  1.0
  C  C699  1  0.89742000  0.08079000  0.44924000  1.0
  C  C700  1  0.90819000  0.12622000  0.53313000  1.0
  C  C701  1  0.96558000  0.11119000  0.48061000  1.0
  C  C702  1  0.47678000  0.38557000  0.86073000  1.0
  C  C703  1  0.53151000  0.40570000  0.82288000  1.0
  C  C704  1  0.27898000  0.32535000  0.57058000  1.0
  C  C705  1  0.22495000  0.38287000  0.59698000  1.0
  C  C706  1  0.29638000  0.40600000  0.59717000  1.0
  C  C707  1  0.84340000  0.00810000  0.22804000  1.0
  C  C708  1  0.66469000  0.29025000  0.23987000  1.0
  C  C709  1  0.65515000  0.26220000  0.29445000  1.0
  C  C710  1  0.68219000  0.21112000  0.21774000  1.0
  C  C711  1  0.65862000  0.13908000  0.27418000  1.0
  C  C712  1  0.66970000  0.16898000  0.22156000  1.0
  C  C713  1  0.64289000  0.22017000  0.29895000  1.0
  C  C714  1  0.48219000  0.31904000  0.13350000  1.0
  C  C715  1  0.45771000  0.30952000  0.06047000  1.0
  C  C716  1  0.52466000  0.27879000  0.06412000  1.0
  C  C717  1  0.51109000  0.26280000  0.94405000  1.0
  C  C718  1  0.53631000  0.27520000  0.01787000  1.0
  C  C719  1  0.46965000  0.30588000  0.01428000  1.0
  C  C720  1  0.35467000  0.98759000  0.70743000  1.0
  C  C721  1  0.46030000  0.04220000  0.74933000  1.0
  C  C722  1  0.39718000  0.00592000  0.70423000  1.0
  C  C723  1  0.42725000  0.97621000  0.75031000  1.0
  C  C724  1  0.01952000  0.20474000  0.90794000  1.0
  C  C725  1  0.04592000  0.18987000  0.96777000  1.0
  C  C726  1  0.08419000  0.24059000  0.94869000  1.0
  C  C727  1  0.15001000  0.21581000  0.02809000  1.0
  C  C728  1  0.12340000  0.23247000  0.96933000  1.0
  C  C729  1  0.08502000  0.18187000  0.98867000  1.0
  C  C730  1  0.98695000  0.04154000  0.66852000  1.0
  C  C731  1  0.94615000  0.98200000  0.67162000  1.0
  C  C732  1  0.49108000  0.00003000  0.26321000  1.0
  C  C733  1  0.38532000  0.04646000  0.31506000  1.0
  C  C734  1  0.42401000  0.97923000  0.30590000  1.0
  C  C735  1  0.44771000  0.02009000  0.26739000  1.0
  C  C736  1  0.25736000  0.20656000  0.33455000  1.0
  C  C737  1  0.27418000  0.27673000  0.33152000  1.0
  C  C738  1  0.23521000  0.21606000  0.26932000  1.0
  C  C739  1  0.28003000  0.29523000  0.22858000  1.0
  C  C740  1  0.25033000  0.23202000  0.23590000  1.0
  C  C741  1  0.29090000  0.29281000  0.29916000  1.0
  C  C742  1  0.50987000  0.19085000  0.37051000  1.0
  C  C743  1  0.57809000  0.18559000  0.39755000  1.0
  C  C744  1  0.53505000  0.11634000  0.35763000  1.0
  C  C745  1  0.63447000  0.08495000  0.39508000  1.0
  C  C746  1  0.56227000  0.09219000  0.37675000  1.0
  C  C747  1  0.60470000  0.16082000  0.41628000  1.0
  C  C748  1  0.36608000  0.38921000  0.20528000  1.0
  C  C749  1  0.39104000  0.38291000  0.24066000  1.0
  C  C750  1  0.16673000  0.22509000  0.84024000  1.0
  C  C751  1  0.21423000  0.16795000  0.83961000  1.0
  C  C752  1  0.23077000  0.20675000  0.79572000  1.0
  C  C753  1  0.31275000  0.11647000  0.77285000  1.0
  C  C754  1  0.26333000  0.16959000  0.76863000  1.0
  C  C755  1  0.24565000  0.13040000  0.81086000  1.0
  N  N756  1  0.94610000  0.84953000  0.48305000  1.0
  N  N757  1  0.93149000  0.84427000  0.39560000  1.0
  N  N758  1  0.67412000  0.86293000  0.30084000  1.0
  N  N759  1  0.73080000  0.94033000  0.33661000  1.0
  N  N760  1  0.18839000  0.96076000  0.60627000  1.0
  N  N761  1  0.48054000  0.85672000  0.41927000  1.0
  N  N762  1  0.42054000  0.88043000  0.49184000  1.0
  N  N763  1  0.04902000  0.66056000  0.94066000  1.0
  N  N764  1  0.00848000  0.65335000  0.01381000  1.0
  N  N765  1  0.92036000  0.89339000  0.19993000  1.0
  N  N766  1  0.35836000  0.94692000  0.71391000  1.0
  N  N767  1  0.22325000  0.71043000  0.66096000  1.0
  N  N768  1  0.15486000  0.68967000  0.70273000  1.0
  N  N769  1  0.97887000  0.92352000  0.68609000  1.0
  N  N770  1  0.75426000  0.77074000  0.72238000  1.0
  N  N771  1  0.70438000  0.71660000  0.74969000  1.0
  N  N772  1  0.55699000  0.70986000  0.02168000  1.0
  N  N773  1  0.62484000  0.66568000  0.95865000  1.0
  N  N774  1  0.48992000  0.95518000  0.26222000  1.0
  N  N775  1  0.76195000  0.75176000  0.15227000  1.0
  N  N776  1  0.67937000  0.71778000  0.14777000  1.0
  N  N777  1  0.04017000  0.72037000  0.57936000  1.0
  N  N778  1  0.11885000  0.74245000  0.55522000  1.0
  N  N779  1  0.53415000  0.61511000  0.21921000  1.0
  N  N780  1  0.26461000  0.61478000  0.39750000  1.0
  N  N781  1  0.82108000  0.61433000  0.01575000  1.0
  N  N782  1  0.91302000  0.61722000  0.61432000  1.0
  N  N783  1  0.75210000  0.62427000  0.45794000  1.0
  N  N784  1  0.57884000  0.55750000  0.24554000  1.0
  N  N785  1  0.80143000  0.57571000  0.91940000  1.0
  N  N786  1  0.97806000  0.57005000  0.63370000  1.0
  N  N787  1  0.85271000  0.56137000  0.73911000  1.0
  N  N788  1  0.93219000  0.54673000  0.76700000  1.0
  N  N789  1  0.20470000  0.54247000  0.34936000  1.0
  N  N790  1  0.96550000  0.52466000  0.15272000  1.0
  N  N791  1  0.71895000  0.53248000  0.39808000  1.0
  N  N792  1  0.03109000  0.45756000  0.12529000  1.0
  N  N793  1  0.10758000  0.46237000  0.85627000  1.0
  N  N794  1  0.58750000  0.45946000  0.86901000  1.0
  N  N795  1  0.24138000  0.46489000  0.62734000  1.0
  N  N796  1  0.70287000  0.41635000  0.56433000  1.0
  N  N797  1  0.40941000  0.42754000  0.27507000  1.0
  N  N798  1  0.33394000  0.42492000  0.22894000  1.0
  N  N799  1  0.69449000  0.32739000  0.48123000  1.0
  N  N800  1  0.43176000  0.18795000  0.54004000  1.0
  N  N801  1  0.41111000  0.15519000  0.60283000  1.0
  N  N802  1  0.05763000  0.39706000  0.86657000  1.0
  N  N803  1  0.50269000  0.37905000  0.38903000  1.0
  N  N804  1  0.42869000  0.34541000  0.41055000  1.0
  N  N805  1  0.30932000  0.29753000  0.93067000  1.0
  N  N806  1  0.25589000  0.34529000  0.00950000  1.0
  N  N807  1  0.15690000  0.05402000  0.65182000  1.0
  N  N808  1  0.92065000  0.11927000  0.48739000  1.0
  N  N809  1  0.97733000  0.15752000  0.56485000  1.0
  N  N810  1  0.52043000  0.39975000  0.86256000  1.0
  N  N811  1  0.26533000  0.36892000  0.57317000  1.0
  N  N812  1  0.87378000  0.97831000  0.23386000  1.0
  N  N813  1  0.67001000  0.18015000  0.27037000  1.0
  N  N814  1  0.65400000  0.25015000  0.24536000  1.0
  N  N815  1  0.49918000  0.26754000  0.98909000  1.0
  N  N816  1  0.49457000  0.31652000  0.08952000  1.0
  N  N817  1  0.42119000  0.01783000  0.74638000  1.0
  N  N818  1  0.11260000  0.22248000  0.00652000  1.0
  N  N819  1  0.05690000  0.19960000  0.93054000  1.0
  N  N820  1  0.98348000  0.01117000  0.68885000  1.0
  N  N821  1  0.42652000  0.02474000  0.30868000  1.0
  N  N822  1  0.26174000  0.28177000  0.26085000  1.0
  N  N823  1  0.26706000  0.22636000  0.30471000  1.0
  N  N824  1  0.60448000  0.11062000  0.38305000  1.0
  N  N825  1  0.53562000  0.16712000  0.38892000  1.0
  N  N826  1  0.27947000  0.15045000  0.79697000  1.0
  N  N827  1  0.19768000  0.18884000  0.81300000  1.0
  O  O828  1  0.93814000  0.78365000  0.14511000  1.0
  O  O829  1  0.91672000  0.80999000  0.22046000  1.0
  O  O830  1  0.88797000  0.79443000  0.28228000  1.0
  O  O831  1  0.95616000  0.80371000  0.30069000  1.0
  O  O832  1  0.84708000  0.76259000  0.20619000  1.0
  O  O833  1  0.85826000  0.76315000  0.13774000  1.0
  O  O834  1  0.95527000  0.69809000  0.08578000  1.0
  O  O835  1  0.94802000  0.63512000  0.09634000  1.0
  O  O836  1  0.93745000  0.63930000  0.22573000  1.0
  O  O837  1  0.86929000  0.64222000  0.12357000  1.0
  O  O838  1  0.87466000  0.67701000  0.07845000  1.0
  O  O839  1  0.91359000  0.71747000  0.16035000  1.0
  O  O840  1  0.25186000  0.77968000  0.64284000  1.0
  O  O841  1  0.26068000  0.72141000  0.56696000  1.0
  O  O842  1  0.28062000  0.69716000  0.48373000  1.0
  O  O843  1  0.29038000  0.73486000  0.44363000  1.0
  O  O844  1  0.22032000  0.75556000  0.52128000  1.0
  O  O845  1  0.19142000  0.79110000  0.59483000  1.0
  O  O846  1  0.27365000  0.86493000  0.67663000  1.0
  O  O847  1  0.30508000  0.89710000  0.63707000  1.0
  O  O848  1  0.32745000  0.88873000  0.55934000  1.0
  O  O849  1  0.37517000  0.83194000  0.52274000  1.0
  O  O850  1  0.24980000  0.87583000  0.56876000  1.0
  O  O851  1  0.21305000  0.87732000  0.62918000  1.0
  O  O852  1  0.27065000  0.81102000  0.58732000  1.0
  O  O853  1  0.05577000  0.66163000  0.83253000  1.0
  O  O854  1  0.07040000  0.66217000  0.75605000  1.0
  O  O855  1  0.92454000  0.83932000  0.70285000  1.0
  O  O856  1  0.95198000  0.83071000  0.63535000  1.0
  O  O857  1  0.94858000  0.79503000  0.54833000  1.0
  O  O858  1  0.91395000  0.86242000  0.57186000  1.0
  O  O859  1  0.95530000  0.73997000  0.58184000  1.0
  O  O860  1  0.95681000  0.75414000  0.65757000  1.0
  O  O861  1  0.85549000  0.80621000  0.71115000  1.0
  O  O862  1  0.80917000  0.76233000  0.65265000  1.0
  O  O863  1  0.79152000  0.71698000  0.56686000  1.0
  O  O864  1  0.82562000  0.67747000  0.49818000  1.0
  O  O865  1  0.85628000  0.69062000  0.59476000  1.0
  O  O866  1  0.88628000  0.72106000  0.66730000  1.0
  O  O867  1  0.88692000  0.77464000  0.62843000  1.0
  O  O868  1  0.69583000  0.66615000  0.80213000  1.0
  O  O869  1  0.68997000  0.66017000  0.87608000  1.0
  O  O870  1  0.53253000  0.78252000  0.11972000  1.0
  O  O871  1  0.51919000  0.71086000  0.11093000  1.0
  O  O872  1  0.50167000  0.66196000  0.14657000  1.0
  O  O873  1  0.57419000  0.70270000  0.16475000  1.0
  O  O874  1  0.60071000  0.75086000  0.13955000  1.0
  O  O875  1  0.53919000  0.85988000  0.19707000  1.0
  O  O876  1  0.53696000  0.87172000  0.27124000  1.0
  O  O877  1  0.52435000  0.83807000  0.32434000  1.0
  O  O878  1  0.50556000  0.76849000  0.31545000  1.0
  O  O879  1  0.58641000  0.80551000  0.26766000  1.0
  O  O880  1  0.60822000  0.82888000  0.21652000  1.0
  O  O881  1  0.53647000  0.78248000  0.19833000  1.0
  O  O882  1  0.92507000  0.60301000  0.14839000  1.0
  O  O883  1  0.07149000  0.60445000  0.85001000  1.0
  O  O884  1  0.00374000  0.59152000  0.78794000  1.0
  O  O885  1  0.13244000  0.62412000  0.72574000  1.0
  O  O886  1  0.69500000  0.60533000  0.72668000  1.0
  O  O887  1  0.77061000  0.62778000  0.78526000  1.0
  O  O888  1  0.68235000  0.59352000  0.87974000  1.0
  O  O889  1  0.76431000  0.61955000  0.85902000  1.0
  O  O890  1  0.48686000  0.59502000  0.14492000  1.0
  O  O891  1  0.08267000  0.58556000  0.76116000  1.0
  O  O892  1  0.08131000  0.55631000  0.66933000  1.0
  O  O893  1  0.02111000  0.58902000  0.71101000  1.0
  O  O894  1  0.75719000  0.55292000  0.72716000  1.0
  O  O895  1  0.70376000  0.58496000  0.79590000  1.0
  O  O896  1  0.61077000  0.54667000  0.32009000  1.0
  O  O897  1  0.10221000  0.52530000  0.82543000  1.0
  O  O898  1  0.04063000  0.52774000  0.77732000  1.0
  O  O899  1  0.15915000  0.54266000  0.66776000  1.0
  O  O900  1  0.60937000  0.52455000  0.84411000  1.0
  O  O901  1  0.74534000  0.54273000  0.83118000  1.0
  O  O902  1  0.20453000  0.53397000  0.71483000  1.0
  O  O903  1  0.69670000  0.51960000  0.66893000  1.0
  O  O904  1  0.67743000  0.50562000  0.83833000  1.0
  O  O905  1  0.16509000  0.50336000  0.79095000  1.0
  O  O906  1  0.57310000  0.48054000  0.29205000  1.0
  O  O907  1  0.68310000  0.46808000  0.28933000  1.0
  O  O908  1  0.15879000  0.47694000  0.26154000  1.0
  O  O909  1  0.50050000  0.44329000  0.28509000  1.0
  O  O910  1  0.65266000  0.45165000  0.34076000  1.0
  O  O911  1  0.11663000  0.44982000  0.15287000  1.0
  O  O912  1  0.73604000  0.46043000  0.66335000  1.0
  O  O913  1  0.57956000  0.42446000  0.34816000  1.0
  O  O914  1  0.19377000  0.42851000  0.27885000  1.0
  O  O915  1  0.23657000  0.41761000  0.20799000  1.0
  O  O916  1  0.71280000  0.09010000  0.27504000  1.0
  O  O917  1  0.69303000  0.15256000  0.34429000  1.0
  O  O918  1  0.70954000  0.20866000  0.42933000  1.0
  O  O919  1  0.72523000  0.24597000  0.38985000  1.0
  O  O920  1  0.69983000  0.12275000  0.40460000  1.0
  O  O921  1  0.68204000  0.06308000  0.33193000  1.0
  O  O922  1  0.77602000  0.03766000  0.25894000  1.0
  O  O923  1  0.82722000  0.04499000  0.31020000  1.0
  O  O924  1  0.85655000  0.08683000  0.39156000  1.0
  O  O925  1  0.82973000  0.11777000  0.46418000  1.0
  O  O926  1  0.78261000  0.05301000  0.38282000  1.0
  O  O927  1  0.74608000  0.00918000  0.31535000  1.0
  O  O928  1  0.75847000  0.09991000  0.34377000  1.0
  O  O929  1  0.53418000  0.32163000  0.18663000  1.0
  O  O930  1  0.51038000  0.39028000  0.19559000  1.0
  O  O931  1  0.49111000  0.36644000  0.26607000  1.0
  O  O932  1  0.59461000  0.30986000  0.23041000  1.0
  O  O933  1  0.63574000  0.36640000  0.28728000  1.0
  O  O934  1  0.55122000  0.35125000  0.30876000  1.0
  O  O935  1  0.56725000  0.39354000  0.25918000  1.0
  O  O936  1  0.45305000  0.11875000  0.81621000  1.0
  O  O937  1  0.43753000  0.10779000  0.74355000  1.0
  O  O938  1  0.41675000  0.14079000  0.69193000  1.0
  O  O939  1  0.37030000  0.19693000  0.70404000  1.0
  O  O940  1  0.36928000  0.15657000  0.76103000  1.0
  O  O941  1  0.37384000  0.13967000  0.82045000  1.0
  O  O942  1  0.46803000  0.19925000  0.88871000  1.0
  O  O943  1  0.45850000  0.27158000  0.89743000  1.0
  O  O944  1  0.44279000  0.31951000  0.85873000  1.0
  O  O945  1  0.50200000  0.30585000  0.81730000  1.0
  O  O946  1  0.38392000  0.26541000  0.85820000  1.0
  O  O947  1  0.38739000  0.22062000  0.89302000  1.0
  O  O948  1  0.43274000  0.19537000  0.81706000  1.0
  O  O949  1  0.24194000  0.28556000  0.16250000  1.0
  O  O950  1  0.23424000  0.35355000  0.23150000  1.0
  O  O951  1  0.27552000  0.35478000  0.15488000  1.0
  O  O952  1  0.20066000  0.25949000  0.08705000  1.0
  O  O953  1  0.14865000  0.29988000  0.07524000  1.0
  O  O954  1  0.10524000  0.37284000  0.10525000  1.0
  O  O955  1  0.18456000  0.38305000  0.10403000  1.0
  O  O956  1  0.23524000  0.32703000  0.07793000  1.0
  O  O957  1  0.19351000  0.34409000  0.15493000  1.0
  O  O958  1  0.03292000  0.15427000  0.82643000  1.0
  O  O959  1  0.04018000  0.23311000  0.85713000  1.0
  O  O960  1  0.04761000  0.30171000  0.84434000  1.0
  O  O961  1  0.98620000  0.30867000  0.81534000  1.0
  O  O962  1  0.10394000  0.23870000  0.81081000  1.0
  O  O963  1  0.11071000  0.16977000  0.81172000  1.0
  O  O964  1  0.02449000  0.09352000  0.73922000  1.0
  O  O965  1  0.02369000  0.10851000  0.67846000  1.0
  O  O966  1  0.03311000  0.16684000  0.64987000  1.0
  O  O967  1  0.97753000  0.21434000  0.67907000  1.0
  O  O968  1  0.09527000  0.15350000  0.69109000  1.0
  O  O969  1  0.10287000  0.10746000  0.72446000  1.0
  O  O970  1  0.04780000  0.17720000  0.76341000  1.0
  O  O971  1  0.38737000  0.12317000  0.32394000  1.0
  O  O972  1  0.39208000  0.11559000  0.38952000  1.0
  O  O973  1  0.41555000  0.23596000  0.48034000  1.0
  O  O974  1  0.44912000  0.28784000  0.54554000  1.0
  O  O975  1  0.45422000  0.17350000  0.40750000  1.0
  O  O976  1  0.43853000  0.19552000  0.35345000  1.0
  O  O977  1  0.32571000  0.17772000  0.33436000  1.0
  O  O978  1  0.29997000  0.23733000  0.40307000  1.0
  O  O979  1  0.30434000  0.28623000  0.49113000  1.0
  O  O980  1  0.34596000  0.28804000  0.54668000  1.0
  O  O981  1  0.36593000  0.28971000  0.44175000  1.0
  O  O982  1  0.37728000  0.24931000  0.36229000  1.0
  O  O983  1  0.37447000  0.19998000  0.40524000  1.0
