# generated using pymatgen
data_Tb2H39C24(NO2)6
_symmetry_space_group_name_H-M   'P 1'
_cell_length_a   31.35435000
_cell_length_b   31.35440000
_cell_length_c   38.30330000
_cell_angle_alpha   89.99900000
_cell_angle_beta   89.99800000
_cell_angle_gamma   59.99984175
_symmetry_Int_Tables_number   1
_chemical_formula_structural   Tb2H39C24(NO2)6
_chemical_formula_sum   'Tb24 H468 C288 N72 O144'
_cell_volume   32610.87316407
_cell_formula_units_Z   12
loop_
 _symmetry_equiv_pos_site_id
 _symmetry_equiv_pos_as_xyz
  1  'x, y, z'
loop_
 _atom_site_type_symbol
 _atom_site_label
 _atom_site_symmetry_multiplicity
 _atom_site_fract_x
 _atom_site_fract_y
 _atom_site_fract_z
 _atom_site_occupancy
  Tb  Tb0  1  0.75204000  0.78676000  0.85596000  1.0
  Tb  Tb1  1  0.71148000  0.81668000  0.91089000  1.0
  Tb  Tb2  1  0.77536000  0.77633000  0.53611000  1.0
  Tb  Tb3  1  0.79573000  0.72538000  0.48705000  1.0
  Tb  Tb4  1  0.13865000  0.55265000  0.06098000  1.0
  Tb  Tb5  1  0.11857000  0.54815000  0.00061000  1.0
  Tb  Tb6  1  0.55380000  0.19651000  0.03319000  1.0
  Tb  Tb7  1  0.52031000  0.24032000  0.97899000  1.0
  Tb  Tb8  1  0.54605000  0.15183000  0.36086000  1.0
  Tb  Tb9  1  0.53712000  0.12446000  0.41291000  1.0
  Tb  Tb10  1  0.20701000  0.56839000  0.37413000  1.0
  Tb  Tb11  1  0.23381000  0.56615000  0.43364000  1.0
  Tb  Tb12  1  0.20807000  0.12122000  0.06921000  1.0
  Tb  Tb13  1  0.23522000  0.08772000  0.01115000  1.0
  Tb  Tb14  1  0.11667000  0.20953000  0.38599000  1.0
  Tb  Tb15  1  0.08103000  0.25714000  0.43840000  1.0
  Tb  Tb16  1  0.80663000  0.34733000  0.87651000  1.0
  Tb  Tb17  1  0.79926000  0.39698000  0.92795000  1.0
  Tb  Tb18  1  0.35978000  0.74954000  0.86809000  1.0
  Tb  Tb19  1  0.38280000  0.71189000  0.91948000  1.0
  Tb  Tb20  1  0.35444000  0.83066000  0.55116000  1.0
  Tb  Tb21  1  0.35329000  0.86935000  0.49891000  1.0
  Tb  Tb22  1  0.71239000  0.38441000  0.54943000  1.0
  Tb  Tb23  1  0.68283000  0.41284000  0.49104000  1.0
  H  H24  1  0.74733000  0.81040000  0.65291000  1.0
  H  H25  1  0.77380000  0.69826000  0.75343000  1.0
  H  H26  1  0.71566000  0.75169000  0.74328000  1.0
  H  H27  1  0.75225000  0.82708000  0.74731000  1.0
  H  H28  1  0.71449000  0.82236000  0.71380000  1.0
  H  H29  1  0.81655000  0.81413000  0.70512000  1.0
  H  H30  1  0.75754000  0.86459000  0.69215000  1.0
  H  H31  1  0.74878000  0.73772000  0.68271000  1.0
  H  H32  1  0.80834000  0.68901000  0.69658000  1.0
  H  H33  1  0.84921000  0.73263000  0.67470000  1.0
  H  H34  1  0.81254000  0.72663000  0.64099000  1.0
  H  H35  1  0.84756000  0.79724000  0.63933000  1.0
  H  H36  1  0.79130000  0.85577000  0.63589000  1.0
  H  H37  1  0.18012000  0.55200000  0.25604000  1.0
  H  H38  1  0.12622000  0.63165000  0.16495000  1.0
  H  H39  1  0.06252000  0.64780000  0.16073000  1.0
  H  H40  1  0.05705000  0.64364000  0.22424000  1.0
  H  H41  1  0.12002000  0.63011000  0.22624000  1.0
  H  H42  1  0.07655000  0.56937000  0.25733000  1.0
  H  H43  1  0.09752000  0.60549000  0.28028000  1.0
  H  H44  1  0.18545000  0.54850000  0.19136000  1.0
  H  H45  1  0.15968000  0.51450000  0.17079000  1.0
  H  H46  1  0.13618000  0.49465000  0.22593000  1.0
  H  H47  1  0.20044000  0.47671000  0.22596000  1.0
  H  H48  1  0.19605000  0.47196000  0.28652000  1.0
  H  H49  1  0.13249000  0.50528000  0.29703000  1.0
  H  H50  1  0.55554000  0.15213000  0.15333000  1.0
  H  H51  1  0.47967000  0.15431000  0.24983000  1.0
  H  H52  1  0.45085000  0.21787000  0.26054000  1.0
  H  H53  1  0.45781000  0.25151000  0.20749000  1.0
  H  H54  1  0.47503000  0.19229000  0.18877000  1.0
  H  H55  1  0.53095000  0.24990000  0.18455000  1.0
  H  H56  1  0.49831000  0.23959000  0.14992000  1.0
  H  H57  1  0.55206000  0.11738000  0.21193000  1.0
  H  H58  1  0.58557000  0.12605000  0.24669000  1.0
  H  H59  1  0.60796000  0.17537000  0.20911000  1.0
  H  H60  1  0.62684000  0.11584000  0.19032000  1.0
  H  H61  1  0.63517000  0.15230000  0.13946000  1.0
  H  H62  1  0.59950000  0.21760000  0.14684000  1.0
  H  H63  1  0.55388000  0.97321000  0.93729000  1.0
  H  H64  1  0.55530000  0.94121000  0.89789000  1.0
  H  H65  1  0.46225000  0.00666000  0.92997000  1.0
  H  H66  1  0.50775000  0.97168000  0.98754000  1.0
  H  H67  1  0.54806000  0.90596000  0.99057000  1.0
  H  H68  1  0.03939000  0.47935000  0.91298000  1.0
  H  H69  1  0.08873000  0.43445000  0.93916000  1.0
  H  H70  1  0.06785000  0.38600000  0.97157000  1.0
  H  H71  1  0.95428000  0.53150000  0.95077000  1.0
  H  H72  1  0.52605000  0.38519000  0.98305000  1.0
  H  H73  1  0.56538000  0.36586000  0.94501000  1.0
  H  H74  1  0.43033000  0.40940000  0.94170000  1.0
  H  H75  1  0.40505000  0.47570000  0.89902000  1.0
  H  H76  1  0.53143000  0.98973000  0.36399000  1.0
  H  H77  1  0.55499000  0.95067000  0.40183000  1.0
  H  H78  1  0.87791000  0.59938000  0.39863000  1.0
  H  H79  1  0.95511000  0.57161000  0.43697000  1.0
  H  H80  1  0.98443000  0.50915000  0.48220000  1.0
  H  H81  1  0.39986000  0.54443000  0.49711000  1.0
  H  H82  1  0.42476000  0.49249000  0.42814000  1.0
  H  H83  1  0.37761000  0.55473000  0.43675000  1.0
  H  H84  1  0.48035000  0.44139000  0.48104000  1.0
  H  H85  1  0.46476000  0.47138000  0.52301000  1.0
  H  H86  1  0.38511000  0.47882000  0.51566000  1.0
  H  H87  1  0.39798000  0.45476000  0.47169000  1.0
  H  H88  1  0.85012000  0.77637000  0.97998000  1.0
  H  H89  1  0.95253000  0.64511000  0.05646000  1.0
  H  H90  1  0.97079000  0.68828000  0.06864000  1.0
  H  H91  1  0.96448000  0.74923000  0.02697000  1.0
  H  H92  1  0.90261000  0.76128000  0.03480000  1.0
  H  H93  1  0.95336000  0.75216000  0.96370000  1.0
  H  H94  1  0.90568000  0.80757000  0.98373000  1.0
  H  H95  1  0.88142000  0.69630000  0.01600000  1.0
  H  H96  1  0.92911000  0.64115000  0.99545000  1.0
  H  H97  1  0.93110000  0.68678000  0.94443000  1.0
  H  H98  1  0.86919000  0.69960000  0.95229000  1.0
  H  H99  1  0.90097000  0.76129000  0.91051000  1.0
  H  H100  1  0.86320000  0.82000000  0.93027000  1.0
  H  H101  1  0.70985000  0.20602000  0.00979000  1.0
  H  H102  1  0.77218000  0.15725000  0.94652000  1.0
  H  H103  1  0.78128000  0.13227000  0.99002000  1.0
  H  H104  1  0.70584000  0.13651000  0.98093000  1.0
  H  H105  1  0.68502000  0.17413000  0.94252000  1.0
  H  H106  1  0.19931000  0.72970000  0.43173000  1.0
  H  H107  1  0.70898000  0.99677000  0.40156000  1.0
  H  H108  1  0.81934000  0.87949000  0.47095000  1.0
  H  H109  1  0.85044000  0.83201000  0.43850000  1.0
  H  H110  1  0.82323000  0.87709000  0.38691000  1.0
  H  H111  1  0.79936000  0.93219000  0.41306000  1.0
  H  H112  1  0.74323000  0.90437000  0.35975000  1.0
  H  H113  1  0.76193000  0.94979000  0.35457000  1.0
  H  H114  1  0.73585000  0.94690000  0.45927000  1.0
  H  H115  1  0.71652000  0.90192000  0.46431000  1.0
  H  H116  1  0.67817000  0.92005000  0.40676000  1.0
  H  H117  1  0.65492000  0.97540000  0.43223000  1.0
  H  H118  1  0.64808000  0.96928000  0.35635000  1.0
  H  H119  1  0.67933000  0.99786000  0.33833000  1.0
  H  H120  1  0.10929000  0.70607000  0.01146000  1.0
  H  H121  1  0.16705000  0.68439000  0.03229000  1.0
  H  H122  1  0.24302000  0.62113000  0.98787000  1.0
  H  H123  1  0.23077000  0.68200000  0.99938000  1.0
  H  H124  1  0.24424000  0.63770000  0.92558000  1.0
  H  H125  1  0.14672000  0.75527000  0.98065000  1.0
  H  H126  1  0.10534000  0.74115000  0.95724000  1.0
  H  H127  1  0.16119000  0.70877000  0.90735000  1.0
  H  H128  1  0.14693000  0.77054000  0.91787000  1.0
  H  H129  1  0.63069000  0.96906000  0.88820000  1.0
  H  H130  1  0.56471000  0.05683000  0.97705000  1.0
  H  H131  1  0.52005000  0.09578000  0.94580000  1.0
  H  H132  1  0.54778000  0.09932000  0.88478000  1.0
  H  H133  1  0.55272000  0.04185000  0.89781000  1.0
  H  H134  1  0.63043000  0.05684000  0.85844000  1.0
  H  H135  1  0.59493000  0.03010000  0.84266000  1.0
  H  H136  1  0.62706000  0.99160000  0.94868000  1.0
  H  H137  1  0.65720000  0.02538000  0.96130000  1.0
  H  H138  1  0.69137000  0.01725000  0.90236000  1.0
  H  H139  1  0.70627000  0.95844000  0.91960000  1.0
  H  H140  1  0.71723000  0.96109000  0.84973000  1.0
  H  H141  1  0.66865000  0.95951000  0.82666000  1.0
  H  H142  1  0.68514000  0.12905000  0.44289000  1.0
  H  H143  1  0.68143000  0.16309000  0.40460000  1.0
  H  H144  1  0.66291000  0.24430000  0.41428000  1.0
  H  H145  1  0.70370000  0.21219000  0.45024000  1.0
  H  H146  1  0.60238000  0.30796000  0.45257000  1.0
  H  H147  1  0.67443000  0.17353000  0.49602000  1.0
  H  H148  1  0.61494000  0.17895000  0.48997000  1.0
  H  H149  1  0.57267000  0.26849000  0.49798000  1.0
  H  H150  1  0.61242000  0.23716000  0.53445000  1.0
  H  H151  1  0.57563000  0.34591000  0.50993000  1.0
  H  H152  1  0.07366000  0.66351000  0.48570000  1.0
  H  H153  1  0.95009000  0.68623000  0.56517000  1.0
  H  H154  1  0.95205000  0.63099000  0.55022000  1.0
  H  H155  1  0.01301000  0.58942000  0.50834000  1.0
  H  H156  1  0.04397000  0.61808000  0.52915000  1.0
  H  H157  1  0.01828000  0.61970000  0.45095000  1.0
  H  H158  1  0.07852000  0.58708000  0.47040000  1.0
  H  H159  1  0.00226000  0.70981000  0.53069000  1.0
  H  H160  1  0.94176000  0.74519000  0.51162000  1.0
  H  H161  1  0.97313000  0.71666000  0.45305000  1.0
  H  H162  1  0.00601000  0.74345000  0.47341000  1.0
  H  H163  1  0.06307000  0.70324000  0.42771000  1.0
  H  H164  1  0.03992000  0.66542000  0.41173000  1.0
  H  H165  1  0.11554000  0.39838000  0.01416000  1.0
  H  H166  1  0.25228000  0.23088000  0.99989000  1.0
  H  H167  1  0.11746000  0.34059000  0.07728000  1.0
  H  H168  1  0.19788000  0.33123000  0.99324000  1.0
  H  H169  1  0.24529000  0.30210000  0.02594000  1.0
  H  H170  1  0.18954000  0.35346000  0.07232000  1.0
  H  H171  1  0.19164000  0.39047000  0.03715000  1.0
  H  H172  1  0.10717000  0.42343000  0.09044000  1.0
  H  H173  1  0.05778000  0.44815000  0.05913000  1.0
  H  H174  1  0.30370000  0.43615000  0.06102000  1.0
  H  H175  1  0.47618000  0.35478000  0.09039000  1.0
  H  H176  1  0.48941000  0.38402000  0.05451000  1.0
  H  H177  1  0.41337000  0.45064000  0.03718000  1.0
  H  H178  1  0.38215000  0.44699000  0.07555000  1.0
  H  H179  1  0.35942000  0.43894000  0.99809000  1.0
  H  H180  1  0.32228000  0.48856000  0.02746000  1.0
  H  H181  1  0.38526000  0.37051000  0.09056000  1.0
  H  H182  1  0.42129000  0.31605000  0.06500000  1.0
  H  H183  1  0.36698000  0.35129000  0.01433000  1.0
  H  H184  1  0.33298000  0.35159000  0.05235000  1.0
  H  H185  1  0.27349000  0.39976000  0.00999000  1.0
  H  H186  1  0.29249000  0.43266000  0.98321000  1.0
  H  H187  1  0.42723000  0.16246000  0.02125000  1.0
  H  H188  1  0.32361000  0.14018000  0.01834000  1.0
  H  H189  1  0.38876000  0.11064000  0.01012000  1.0
  H  H190  1  0.32057000  0.21475000  0.04051000  1.0
  H  H191  1  0.34605000  0.19968000  0.99703000  1.0
  H  H192  1  0.44641000  0.09054000  0.06194000  1.0
  H  H193  1  0.41963000  0.10715000  0.10496000  1.0
  H  H194  1  0.37897000  0.19498000  0.09160000  1.0
  H  H195  1  0.44385000  0.16614000  0.08283000  1.0
  H  H196  1  0.37835000  0.25856000  0.05859000  1.0
  H  H197  1  0.36615000  0.25931000  0.01301000  1.0
  H  H198  1  0.48111000  0.31713000  0.37415000  1.0
  H  H199  1  0.37341000  0.46481000  0.33763000  1.0
  H  H200  1  0.38890000  0.50014000  0.36644000  1.0
  H  H201  1  0.46638000  0.43904000  0.38540000  1.0
  H  H202  1  0.46438000  0.39839000  0.35337000  1.0
  H  H203  1  0.47768000  0.38110000  0.43322000  1.0
  H  H204  1  0.52480000  0.35338000  0.40023000  1.0
  H  H205  1  0.39360000  0.38150000  0.35431000  1.0
  H  H206  1  0.34868000  0.40853000  0.38874000  1.0
  H  H207  1  0.40884000  0.36007000  0.43340000  1.0
  H  H208  1  0.40910000  0.31996000  0.39964000  1.0
  H  H209  1  0.48582000  0.29306000  0.45063000  1.0
  H  H210  1  0.53961000  0.28102000  0.42767000  1.0
  H  H211  1  0.36480000  0.21517000  0.42658000  1.0
  H  H212  1  0.34249000  0.15864000  0.46165000  1.0
  H  H213  1  0.35474000  0.14174000  0.38182000  1.0
  H  H214  1  0.40238000  0.12838000  0.41334000  1.0
  H  H215  1  0.27814000  0.24836000  0.45186000  1.0
  H  H216  1  0.23028000  0.26221000  0.42033000  1.0
  H  H217  1  0.28899000  0.23286000  0.37201000  1.0
  H  H218  1  0.29424000  0.27860000  0.39710000  1.0
  H  H219  1  0.37255000  0.24816000  0.36996000  1.0
  H  H220  1  0.37499000  0.19603000  0.34910000  1.0
  H  H221  1  0.17866000  0.32650000  0.37796000  1.0
  H  H222  1  0.26345000  0.39914000  0.41186000  1.0
  H  H223  1  0.23008000  0.41918000  0.45166000  1.0
  H  H224  1  0.16552000  0.40334000  0.45600000  1.0
  H  H225  1  0.21124000  0.35016000  0.43250000  1.0
  H  H226  1  0.10090000  0.41634000  0.41537000  1.0
  H  H227  1  0.13275000  0.35387000  0.43153000  1.0
  H  H228  1  0.23374000  0.36282000  0.37131000  1.0
  H  H229  1  0.20569000  0.42434000  0.35443000  1.0
  H  H230  1  0.12366000  0.43165000  0.35405000  1.0
  H  H231  1  0.16780000  0.37910000  0.32931000  1.0
  H  H232  1  0.43685000  0.44553000  0.97567000  1.0
  H  H233  1  0.36654000  0.49658000  0.93736000  1.0
  H  H234  1  0.48405000  0.99372000  0.45486000  1.0
  H  H235  1  0.20883000  0.71872000  0.36300000  1.0
  H  H236  1  0.67396000  0.25314000  0.51056000  1.0
  H  H237  1  0.60791000  0.31315000  0.54880000  1.0
  H  H238  1  0.19610000  0.25139000  0.97749000  1.0
  H  H239  1  0.48568000  0.93314000  0.37035000  1.0
  H  H240  1  0.46059000  0.99007000  0.34616000  1.0
  H  H241  1  0.62706000  0.86975000  0.46363000  1.0
  H  H242  1  0.06857000  0.36877000  0.04585000  1.0
  H  H243  1  0.24535000  0.20134000  0.48009000  1.0
  H  H244  1  0.33256000  0.79234000  0.73456000  1.0
  H  H245  1  0.17863000  0.13181000  0.27468000  1.0
  H  H246  1  0.26407000  0.12773000  0.18333000  1.0
  H  H247  1  0.23033000  0.19090000  0.17055000  1.0
  H  H248  1  0.18272000  0.22803000  0.22074000  1.0
  H  H249  1  0.22229000  0.17037000  0.24239000  1.0
  H  H250  1  0.10855000  0.22672000  0.23852000  1.0
  H  H251  1  0.14630000  0.22017000  0.27579000  1.0
  H  H252  1  0.22400000  0.09303000  0.21874000  1.0
  H  H253  1  0.18614000  0.09988000  0.18142000  1.0
  H  H254  1  0.11021000  0.15042000  0.21460000  1.0
  H  H255  1  0.14870000  0.09238000  0.23601000  1.0
  H  H256  1  0.10249000  0.12899000  0.28754000  1.0
  H  H257  1  0.06783000  0.19115000  0.27239000  1.0
  H  H258  1  0.41606000  0.00076000  0.98382000  1.0
  H  H259  1  0.47201000  0.96379000  0.89524000  1.0
  H  H260  1  0.43282000  0.92649000  0.92827000  1.0
  H  H261  1  0.39269000  0.99201000  0.92526000  1.0
  H  H262  1  0.47923000  0.89056000  0.98528000  1.0
  H  H263  1  0.46918000  0.93268000  0.02049000  1.0
  H  H264  1  0.38675000  0.95098000  0.01668000  1.0
  H  H265  1  0.38681000  0.92337000  0.97563000  1.0
  H  H266  1  0.94331000  0.41845000  0.94453000  1.0
  H  H267  1  0.03030000  0.39584000  0.93366000  1.0
  H  H268  1  0.99703000  0.41099000  0.01098000  1.0
  H  H269  1  0.00699000  0.36067000  0.98311000  1.0
  H  H270  1  0.96236000  0.48404000  0.92046000  1.0
  H  H271  1  0.92807000  0.49619000  0.99716000  1.0
  H  H272  1  0.89176000  0.50476000  0.95878000  1.0
  H  H273  1  0.89805000  0.44459000  0.01572000  1.0
  H  H274  1  0.92880000  0.38179000  0.00130000  1.0
  H  H275  1  0.34308000  0.57739000  0.91883000  1.0
  H  H276  1  0.42632000  0.92735000  0.41326000  1.0
  H  H277  1  0.49969000  0.93537000  0.43533000  1.0
  H  H278  1  0.39650000  0.02690000  0.44369000  1.0
  H  H279  1  0.42230000  0.96934000  0.46691000  1.0
  H  H280  1  0.38234000  0.02543000  0.37736000  1.0
  H  H281  1  0.39733000  0.96723000  0.35791000  1.0
  H  H282  1  0.33908000  0.96536000  0.39696000  1.0
  H  H283  1  0.32786000  0.01872000  0.42218000  1.0
  H  H284  1  0.01026000  0.43514000  0.42473000  1.0
  H  H285  1  0.83654000  0.57938000  0.41286000  1.0
  H  H286  1  0.96781000  0.52704000  0.40284000  1.0
  H  H287  1  0.03096000  0.49214000  0.44911000  1.0
  H  H288  1  0.91910000  0.48457000  0.40035000  1.0
  H  H289  1  0.87217000  0.49869000  0.43295000  1.0
  H  H290  1  0.93221000  0.46289000  0.47966000  1.0
  H  H291  1  0.94756000  0.41898000  0.44484000  1.0
  H  H292  1  0.01502000  0.42566000  0.50300000  1.0
  H  H293  1  0.06613000  0.41106000  0.47458000  1.0
  H  H294  1  0.32133000  0.91748000  0.03441000  1.0
  H  H295  1  0.92985000  0.32110000  0.36588000  1.0
  H  H296  1  0.90365000  0.34233000  0.42837000  1.0
  H  H297  1  0.96281000  0.29044000  0.95953000  1.0
  H  H298  1  0.04343000  0.17701000  0.03314000  1.0
  H  H299  1  0.09324000  0.21954000  0.98290000  1.0
  H  H300  1  0.03236000  0.25204000  0.00158000  1.0
  H  H301  1  0.06028000  0.23471000  0.92322000  1.0
  H  H302  1  0.03806000  0.29119000  0.94712000  1.0
  H  H303  1  0.97427000  0.32896000  0.90595000  1.0
  H  H304  1  0.18873000  0.08967000  0.46842000  1.0
  H  H305  1  0.20339000  0.07794000  0.53156000  1.0
  H  H306  1  0.24932000  0.02676000  0.50736000  1.0
  H  H307  1  0.24238000  0.01447000  0.57672000  1.0
  H  H308  1  0.75816000  0.53912000  0.87870000  1.0
  H  H309  1  0.80319000  0.64383000  0.93548000  1.0
  H  H310  1  0.74228000  0.65301000  0.93273000  1.0
  H  H311  1  0.73109000  0.65972000  0.85171000  1.0
  H  H312  1  0.71569000  0.62741000  0.88353000  1.0
  H  H313  1  0.78559000  0.58319000  0.82016000  1.0
  H  H314  1  0.72619000  0.58871000  0.82687000  1.0
  H  H315  1  0.79688000  0.56182000  0.92473000  1.0
  H  H316  1  0.85260000  0.56218000  0.91340000  1.0
  H  H317  1  0.85465000  0.52902000  0.85553000  1.0
  H  H318  1  0.84974000  0.49131000  0.88857000  1.0
  H  H319  1  0.82561000  0.48088000  0.82002000  1.0
  H  H320  1  0.76108000  0.50310000  0.81873000  1.0
  H  H321  1  0.54471000  0.86211000  0.87457000  1.0
  H  H322  1  0.40590000  0.86443000  0.91545000  1.0
  H  H323  1  0.44556000  0.81925000  0.94601000  1.0
  H  H324  1  0.53185000  0.77572000  0.93407000  1.0
  H  H325  1  0.51296000  0.83995000  0.92883000  1.0
  H  H326  1  0.57600000  0.75435000  0.87803000  1.0
  H  H327  1  0.59692000  0.78587000  0.90623000  1.0
  H  H328  1  0.45308000  0.88672000  0.87769000  1.0
  H  H329  1  0.43481000  0.85192000  0.85058000  1.0
  H  H330  1  0.51834000  0.80110000  0.82847000  1.0
  H  H331  1  0.49886000  0.86532000  0.82320000  1.0
  H  H332  1  0.58322000  0.84181000  0.81651000  1.0
  H  H333  1  0.60589000  0.77850000  0.82548000  1.0
  H  H334  1  0.48241000  0.89979000  0.51431000  1.0
  H  H335  1  0.63023000  0.81466000  0.44804000  1.0
  H  H336  1  0.58347000  0.78437000  0.47700000  1.0
  H  H337  1  0.54028000  0.84765000  0.46591000  1.0
  H  H338  1  0.55357000  0.79603000  0.53720000  1.0
  H  H339  1  0.50396000  0.81405000  0.50659000  1.0
  H  H340  1  0.55119000  0.91492000  0.49630000  1.0
  H  H341  1  0.60139000  0.89501000  0.52685000  1.0
  H  H342  1  0.56383000  0.86244000  0.56707000  1.0
  H  H343  1  0.52101000  0.92588000  0.55668000  1.0
  H  H344  1  0.45506000  0.91303000  0.57509000  1.0
  H  H345  1  0.49392000  0.84845000  0.58303000  1.0
  H  H346  1  0.77810000  0.49824000  0.56381000  1.0
  H  H347  1  0.76173000  0.64568000  0.59595000  1.0
  H  H348  1  0.70444000  0.67896000  0.57415000  1.0
  H  H349  1  0.68053000  0.62806000  0.54628000  1.0
  H  H350  1  0.71509000  0.58763000  0.58180000  1.0
  H  H351  1  0.72508000  0.56403000  0.50276000  1.0
  H  H352  1  0.69899000  0.54291000  0.53574000  1.0
  H  H353  1  0.80643000  0.55799000  0.58558000  1.0
  H  H354  1  0.83311000  0.57898000  0.55284000  1.0
  H  H355  1  0.81821000  0.53423000  0.50679000  1.0
  H  H356  1  0.85224000  0.49334000  0.54208000  1.0
  H  H357  1  0.82700000  0.43764000  0.52007000  1.0
  H  H358  1  0.78907000  0.47970000  0.48650000  1.0
  H  H359  1  0.12301000  0.27986000  0.03482000  1.0
  H  H360  1  0.12222000  0.31660000  0.99871000  1.0
  H  H361  1  0.38136000  0.05870000  0.09618000  1.0
  H  H362  1  0.39921000  0.04341000  0.05082000  1.0
  H  H363  1  0.26110000  0.14212000  0.46246000  1.0
  H  H364  1  0.33788000  0.11263000  0.43626000  1.0
  H  H365  1  0.11114000  0.35038000  0.33421000  1.0
  H  H366  1  0.07009000  0.39188000  0.36698000  1.0
  H  H367  1  0.98235000  0.27561000  0.88243000  1.0
  H  H368  1  0.47108000  0.49967000  0.89209000  1.0
  H  H369  1  0.27217000  0.68469000  0.37378000  1.0
  H  H370  1  0.22395000  0.73821000  0.94831000  1.0
  H  H371  1  0.66265000  0.30084000  0.45842000  1.0
  H  H372  1  0.77352000  0.39045000  0.75333000  1.0
  H  H373  1  0.67381000  0.44519000  0.66571000  1.0
  H  H374  1  0.65589000  0.39983000  0.66250000  1.0
  H  H375  1  0.68332000  0.35908000  0.71616000  1.0
  H  H376  1  0.69005000  0.41106000  0.72802000  1.0
  H  H377  1  0.76762000  0.30064000  0.73339000  1.0
  H  H378  1  0.73512000  0.34245000  0.76862000  1.0
  H  H379  1  0.75118000  0.42568000  0.69225000  1.0
  H  H380  1  0.78346000  0.38356000  0.65708000  1.0
  H  H381  1  0.82771000  0.31470000  0.69784000  1.0
  H  H382  1  0.83602000  0.36583000  0.70917000  1.0
  H  H383  1  0.86245000  0.32633000  0.76340000  1.0
  H  H384  1  0.84231000  0.28182000  0.76237000  1.0
  H  H385  1  0.35364000  0.80605000  0.67398000  1.0
  H  H386  1  0.31272000  0.86258000  0.77742000  1.0
  H  H387  1  0.36420000  0.86703000  0.79460000  1.0
  H  H388  1  0.38343000  0.87924000  0.73489000  1.0
  H  H389  1  0.33258000  0.87331000  0.71885000  1.0
  H  H390  1  0.44200000  0.81169000  0.69826000  1.0
  H  H391  1  0.39200000  0.85674000  0.67208000  1.0
  H  H392  1  0.38411000  0.74705000  0.75980000  1.0
  H  H393  1  0.44273000  0.73332000  0.71394000  1.0
  H  H394  1  0.39344000  0.72447000  0.69837000  1.0
  H  H395  1  0.42554000  0.72786000  0.64475000  1.0
  H  H396  1  0.45757000  0.76165000  0.64870000  1.0
  H  H397  1  0.41370000  0.53189000  0.95930000  1.0
  H  H398  1  0.54132000  0.44802000  0.92919000  1.0
  H  H399  1  0.50418000  0.46904000  0.96817000  1.0
  H  H400  1  0.47716000  0.53581000  0.92635000  1.0
  H  H401  1  0.38724000  0.56366000  0.88460000  1.0
  H  H402  1  0.52899000  0.55620000  0.45548000  1.0
  H  H403  1  0.53430000  0.53073000  0.41254000  1.0
  H  H404  1  0.45148000  0.54914000  0.40917000  1.0
  H  H405  1  0.43783000  0.57953000  0.45100000  1.0
  H  H406  1  0.48594000  0.53297000  0.50271000  1.0
  H  H407  1  0.53636000  0.47076000  0.49752000  1.0
  H  H408  1  0.85073000  0.22987000  0.97229000  1.0
  H  H409  1  0.80469000  0.27260000  0.00163000  1.0
  H  H410  1  0.71347000  0.30602000  0.95831000  1.0
  H  H411  1  0.72281000  0.28153000  0.00196000  1.0
  H  H412  1  0.69644000  0.24317000  0.93580000  1.0
  H  H413  1  0.65710000  0.27403000  0.97247000  1.0
  H  H414  1  0.79599000  0.19672000  0.01310000  1.0
  H  H415  1  0.83639000  0.16438000  0.97704000  1.0
  H  H416  1  0.28075000  0.83399000  0.99177000  1.0
  H  H417  1  0.27225000  0.94264000  0.09058000  1.0
  H  H418  1  0.20735000  0.96715000  0.08770000  1.0
  H  H419  1  0.17877000  0.93532000  0.04480000  1.0
  H  H420  1  0.23245000  0.87528000  0.05124000  1.0
  H  H421  1  0.19577000  0.93639000  0.98331000  1.0
  H  H422  1  0.19426000  0.88112000  0.99351000  1.0
  H  H423  1  0.31477000  0.86505000  0.04532000  1.0
  H  H424  1  0.28830000  0.92390000  0.97658000  1.0
  H  H425  1  0.33784000  0.86208000  0.98313000  1.0
  H  H426  1  0.25843000  0.90189000  0.93035000  1.0
  H  H427  1  0.22625000  0.86973000  0.93570000  1.0
  H  H428  1  0.21508000  0.82365000  0.50808000  1.0
  H  H429  1  0.20385000  0.87243000  0.47841000  1.0
  H  H430  1  0.18240000  0.85422000  0.42486000  1.0
  H  H431  1  0.16641000  0.81700000  0.45174000  1.0
  H  H432  1  0.23219000  0.78524000  0.38582000  1.0
  H  H433  1  0.17053000  0.79534000  0.38983000  1.0
  H  H434  1  0.23688000  0.74507000  0.48575000  1.0
  H  H435  1  0.29788000  0.73649000  0.48078000  1.0
  H  H436  1  0.30070000  0.71487000  0.41912000  1.0
  H  H437  1  0.28617000  0.67663000  0.44572000  1.0
  H  H438  1  0.81457000  0.29694000  0.42721000  1.0
  H  H439  1  0.95144000  0.25965000  0.35105000  1.0
  H  H440  1  0.93037000  0.20769000  0.38336000  1.0
  H  H441  1  0.87172000  0.26209000  0.37472000  1.0
  H  H442  1  0.91178000  0.20910000  0.44545000  1.0
  H  H443  1  0.86362000  0.20980000  0.41937000  1.0
  H  H444  1  0.85554000  0.34306000  0.40205000  1.0
  H  H445  1  0.89582000  0.29052000  0.47277000  1.0
  H  H446  1  0.83730000  0.34487000  0.46465000  1.0
  H  H447  1  0.85431000  0.24801000  0.49671000  1.0
  H  H448  1  0.81206000  0.23972000  0.46998000  1.0
  H  H449  1  0.06540000  0.12081000  0.00888000  1.0
  H  H450  1  0.97557000  0.21439000  0.99166000  1.0
  H  H451  1  0.00078000  0.15846000  0.96639000  1.0
  H  H452  1  0.00439000  0.20034000  0.91377000  1.0
  H  H453  1  0.94346000  0.23197000  0.93230000  1.0
  H  H454  1  0.28526000  0.65183000  0.94908000  1.0
  H  H455  1  0.21416000  0.75176000  0.88221000  1.0
  H  H456  1  0.24577000  0.68682000  0.87874000  1.0
  H  H457  1  0.20102000  0.98468000  0.51761000  1.0
  H  H458  1  0.05636000  0.12036000  0.46509000  1.0
  H  H459  1  0.10761000  0.07578000  0.43956000  1.0
  H  H460  1  0.18838000  0.03254000  0.46433000  1.0
  H  H461  1  0.11515000  0.02878000  0.49728000  1.0
  H  H462  1  0.07352000  0.08316000  0.52154000  1.0
  H  H463  1  0.13862000  0.07175000  0.56260000  1.0
  H  H464  1  0.13509000  0.01627000  0.55950000  1.0
  H  H465  1  0.21298000  0.97953000  0.58586000  1.0
  H  H466  1  0.63258000  0.48096000  0.84834000  1.0
  H  H467  1  0.51874000  0.63976000  0.82482000  1.0
  H  H468  1  0.53691000  0.66529000  0.85994000  1.0
  H  H469  1  0.60859000  0.60221000  0.88426000  1.0
  H  H470  1  0.61516000  0.57146000  0.84315000  1.0
  H  H471  1  0.61798000  0.53178000  0.91761000  1.0
  H  H472  1  0.66868000  0.51349000  0.88780000  1.0
  H  H473  1  0.54949000  0.55205000  0.82531000  1.0
  H  H474  1  0.49748000  0.57037000  0.85397000  1.0
  H  H475  1  0.54965000  0.51364000  0.89928000  1.0
  H  H476  1  0.55675000  0.48138000  0.85881000  1.0
  H  H477  1  0.63250000  0.41541000  0.88179000  1.0
  H  H478  1  0.62710000  0.44903000  0.92136000  1.0
  H  H479  1  0.54170000  0.55748000  0.51291000  1.0
  H  H480  1  0.45420000  0.69635000  0.46094000  1.0
  H  H481  1  0.49592000  0.71843000  0.46731000  1.0
  H  H482  1  0.56703000  0.65824000  0.49606000  1.0
  H  H483  1  0.54807000  0.61939000  0.47441000  1.0
  H  H484  1  0.57598000  0.61766000  0.55204000  1.0
  H  H485  1  0.61021000  0.57274000  0.51888000  1.0
  H  H486  1  0.46445000  0.62784000  0.49449000  1.0
  H  H487  1  0.42996000  0.67344000  0.52703000  1.0
  H  H488  1  0.49478000  0.62904000  0.57127000  1.0
  H  H489  1  0.47296000  0.59070000  0.55258000  1.0
  H  H490  1  0.54488000  0.52234000  0.57285000  1.0
  H  H491  1  0.58205000  0.54797000  0.58518000  1.0
  C  C492  1  0.75351000  0.75711000  0.78820000  1.0
  C  C493  1  0.82342000  0.78606000  0.91371000  1.0
  C  C494  1  0.70673000  0.90003000  0.86234000  1.0
  C  C495  1  0.60703000  0.89578000  0.93577000  1.0
  C  C496  1  0.79743000  0.80350000  0.59856000  1.0
  C  C497  1  0.80616000  0.81833000  0.47286000  1.0
  C  C498  1  0.88877000  0.69582000  0.53352000  1.0
  C  C499  1  0.84599000  0.62433000  0.44962000  1.0
  C  C500  1  0.11266000  0.59078000  0.12702000  1.0
  C  C501  1  0.14907000  0.62952000  0.01577000  1.0
  C  C502  1  0.23066000  0.47576000  0.01685000  1.0
  C  C503  1  0.02556000  0.62468000  0.04172000  1.0
  C  C504  1  0.10892000  0.47250000  0.05184000  1.0
  C  C505  1  0.06106000  0.50707000  0.95687000  1.0
  C  C506  1  0.57847000  0.18972000  0.10275000  1.0
  C  C507  1  0.55518000  0.12871000  0.97186000  1.0
  C  C508  1  0.44113000  0.23373000  0.02548000  1.0
  C  C509  1  0.63495000  0.19823000  0.98601000  1.0
  C  C510  1  0.50688000  0.31071000  0.04366000  1.0
  C  C511  1  0.51992000  0.33421000  0.94915000  1.0
  C  C512  1  0.50899000  0.17251000  0.29429000  1.0
  C  C513  1  0.61981000  0.15347000  0.41286000  1.0
  C  C514  1  0.50977000  0.23793000  0.41039000  1.0
  C  C515  1  0.62190000  0.04363000  0.37255000  1.0
  C  C516  1  0.43781000  0.18166000  0.38029000  1.0
  C  C517  1  0.53189000  0.02724000  0.40950000  1.0
  C  C518  1  0.17704000  0.53199000  0.32029000  1.0
  C  C519  1  0.11730000  0.62877000  0.42363000  1.0
  C  C520  1  0.21826000  0.47682000  0.41714000  1.0
  C  C521  1  0.22878000  0.65451000  0.39276000  1.0
  C  C522  1  0.32095000  0.50569000  0.37824000  1.0
  C  C523  1  0.33068000  0.52274000  0.47832000  1.0
  C  C524  1  0.75409000  0.73916000  0.75188000  1.0
  C  C525  1  0.75320000  0.80871000  0.72227000  1.0
  C  C526  1  0.77935000  0.82385000  0.69518000  1.0
  C  C527  1  0.78534000  0.72955000  0.69308000  1.0
  C  C528  1  0.81074000  0.74544000  0.66603000  1.0
  C  C529  1  0.80716000  0.81515000  0.63471000  1.0
  C  C530  1  0.10102000  0.61648000  0.16170000  1.0
  C  C531  1  0.09606000  0.61330000  0.22428000  1.0
  C  C532  1  0.10419000  0.58184000  0.25695000  1.0
  C  C533  1  0.15565000  0.53904000  0.19295000  1.0
  C  C534  1  0.16237000  0.50894000  0.22621000  1.0
  C  C535  1  0.16435000  0.50994000  0.28992000  1.0
  C  C536  1  0.48739000  0.18380000  0.25819000  1.0
  C  C537  1  0.48964000  0.21485000  0.20071000  1.0
  C  C538  1  0.52110000  0.22297000  0.17369000  1.0
  C  C539  1  0.56266000  0.14355000  0.22320000  1.0
  C  C540  1  0.59431000  0.15224000  0.19676000  1.0
  C  C541  1  0.59707000  0.18450000  0.13955000  1.0
  C  C542  1  0.55730000  0.93842000  0.92690000  1.0
  C  C543  1  0.51354000  0.93533000  0.97855000  1.0
  C  C544  1  0.05215000  0.46879000  0.94041000  1.0
  C  C545  1  0.52768000  0.37703000  0.95457000  1.0
  C  C546  1  0.44059000  0.43794000  0.94710000  1.0
  C  C547  1  0.40421000  0.48454000  0.92729000  1.0
  C  C548  1  0.52594000  0.98760000  0.39253000  1.0
  C  C549  1  0.41474000  0.52495000  0.44483000  1.0
  C  C550  1  0.46500000  0.47773000  0.49442000  1.0
  C  C551  1  0.38366000  0.48898000  0.48764000  1.0
  C  C552  1  0.97287000  0.66353000  0.04703000  1.0
  C  C553  1  0.93462000  0.74336000  0.01668000  1.0
  C  C554  1  0.91987000  0.76740000  0.98051000  1.0
  C  C555  1  0.91428000  0.68141000  0.99862000  1.0
  C  C556  1  0.89900000  0.70566000  0.96242000  1.0
  C  C557  1  0.86970000  0.78174000  0.92893000  1.0
  C  C558  1  0.68639000  0.17537000  0.97157000  1.0
  C  C559  1  0.23467000  0.69832000  0.38476000  1.0
  C  C560  1  0.81510000  0.85412000  0.45277000  1.0
  C  C561  1  0.79006000  0.90555000  0.40092000  1.0
  C  C562  1  0.74903000  0.93216000  0.37389000  1.0
  C  C563  1  0.72924000  0.91971000  0.44507000  1.0
  C  C564  1  0.68782000  0.94685000  0.41816000  1.0
  C  C565  1  0.66372000  0.99321000  0.36321000  1.0
  C  C566  1  0.14881000  0.67696000  0.01002000  1.0
  C  C567  1  0.22377000  0.66032000  0.97944000  1.0
  C  C568  1  0.24603000  0.66378000  0.94449000  1.0
  C  C569  1  0.14481000  0.72910000  0.96187000  1.0
  C  C570  1  0.16717000  0.73158000  0.92693000  1.0
  C  C571  1  0.55751000  0.08433000  0.95611000  1.0
  C  C572  1  0.57377000  0.06156000  0.89434000  1.0
  C  C573  1  0.61335000  0.03446000  0.86612000  1.0
  C  C574  1  0.63850000  0.01804000  0.93938000  1.0
  C  C575  1  0.67540000  0.99374000  0.90972000  1.0
  C  C576  1  0.68634000  0.95350000  0.85275000  1.0
  C  C577  1  0.65956000  0.16175000  0.42706000  1.0
  C  C578  1  0.66431000  0.23488000  0.44242000  1.0
  C  C579  1  0.64002000  0.28325000  0.46314000  1.0
  C  C580  1  0.63654000  0.19779000  0.48569000  1.0
  C  C581  1  0.61191000  0.24627000  0.50630000  1.0
  C  C582  1  0.94255000  0.66890000  0.54240000  1.0
  C  C583  1  0.01859000  0.62176000  0.50753000  1.0
  C  C584  1  0.04198000  0.62129000  0.47201000  1.0
  C  C585  1  0.97788000  0.71061000  0.50922000  1.0
  C  C586  1  0.00034000  0.71112000  0.47384000  1.0
  C  C587  1  0.06481000  0.66722000  0.43171000  1.0
  C  C588  1  0.10897000  0.35208000  0.04943000  1.0
  C  C589  1  0.20504000  0.31923000  0.02108000  1.0
  C  C590  1  0.17867000  0.36457000  0.04465000  1.0
  C  C591  1  0.09817000  0.43260000  0.06232000  1.0
  C  C592  1  0.47498000  0.35918000  0.06151000  1.0
  C  C593  1  0.39311000  0.43318000  0.04837000  1.0
  C  C594  1  0.34695000  0.44796000  0.02571000  1.0
  C  C595  1  0.39754000  0.35668000  0.06353000  1.0
  C  C596  1  0.35318000  0.36870000  0.04037000  1.0
  C  C597  1  0.28061000  0.43121000  0.01037000  1.0
  C  C598  1  0.35862000  0.13684000  0.02767000  1.0
  C  C599  1  0.35310000  0.18811000  0.02491000  1.0
  C  C600  1  0.41365000  0.11799000  0.07696000  1.0
  C  C601  1  0.40882000  0.16911000  0.07374000  1.0
  C  C602  1  0.39273000  0.23722000  0.03396000  1.0
  C  C603  1  0.37291000  0.47549000  0.36543000  1.0
  C  C604  1  0.45518000  0.41102000  0.38097000  1.0
  C  C605  1  0.48503000  0.36776000  0.40570000  1.0
  C  C606  1  0.38816000  0.39360000  0.38211000  1.0
  C  C607  1  0.41901000  0.34865000  0.40568000  1.0
  C  C608  1  0.50203000  0.28639000  0.42396000  1.0
  C  C609  1  0.33120000  0.15093000  0.43590000  1.0
  C  C610  1  0.36311000  0.15428000  0.40680000  1.0
  C  C611  1  0.26961000  0.23650000  0.42665000  1.0
  C  C612  1  0.30121000  0.24013000  0.39755000  1.0
  C  C613  1  0.38311000  0.20893000  0.37401000  1.0
  C  C614  1  0.22680000  0.42593000  0.42295000  1.0
  C  C615  1  0.17740000  0.38688000  0.42956000  1.0
  C  C616  1  0.13596000  0.38042000  0.41425000  1.0
  C  C617  1  0.19945000  0.39951000  0.37155000  1.0
  C  C618  1  0.15706000  0.39442000  0.35615000  1.0
  C  C619  1  0.96540000  0.49192000  0.94844000  1.0
  C  C620  1  0.86668000  0.58575000  0.42172000  1.0
  C  C621  1  0.21311000  0.24149000  0.00394000  1.0
  C  C622  1  0.68521000  0.80393000  0.48526000  1.0
  C  C623  1  0.46039000  0.97374000  0.37189000  1.0
  C  C624  1  0.13473000  0.30625000  0.02611000  1.0
  C  C625  1  0.24676000  0.18147000  0.45562000  1.0
  C  C626  1  0.75613000  0.70397000  0.90463000  1.0
  C  C627  1  0.64047000  0.81192000  0.85380000  1.0
  C  C628  1  0.79842000  0.45030000  0.85864000  1.0
  C  C629  1  0.86535000  0.42828000  0.97201000  1.0
  C  C630  1  0.43083000  0.86878000  0.55033000  1.0
  C  C631  1  0.34769000  0.95333000  0.45164000  1.0
  C  C632  1  0.76117000  0.68590000  0.55036000  1.0
  C  C633  1  0.22089000  0.14374000  0.13654000  1.0
  C  C634  1  0.12034000  0.13852000  0.02023000  1.0
  C  C635  1  0.21357000  0.19606000  0.01649000  1.0
  C  C636  1  0.23289000  0.01115000  0.06291000  1.0
  C  C637  1  0.32176000  0.07684000  0.06189000  1.0
  C  C638  1  0.33365000  0.00059000  0.98130000  1.0
  C  C639  1  0.10807000  0.18003000  0.32021000  1.0
  C  C640  1  0.09764000  0.14897000  0.44207000  1.0
  C  C641  1  0.19612000  0.19998000  0.44119000  1.0
  C  C642  1  0.99957000  0.26799000  0.38624000  1.0
  C  C643  1  0.10248000  0.31501000  0.37879000  1.0
  C  C644  1  0.03882000  0.36186000  0.47061000  1.0
  C  C645  1  0.22798000  0.15677000  0.17287000  1.0
  C  C646  1  0.18693000  0.19175000  0.22791000  1.0
  C  C647  1  0.14384000  0.20126000  0.25194000  1.0
  C  C648  1  0.18872000  0.11853000  0.20534000  1.0
  C  C649  1  0.14535000  0.12845000  0.22922000  1.0
  C  C650  1  0.10366000  0.16364000  0.28415000  1.0
  C  C651  1  0.47003000  0.96859000  0.92409000  1.0
  C  C652  1  0.42725000  0.96257000  0.93727000  1.0
  C  C653  1  0.47104000  0.92865000  0.99156000  1.0
  C  C654  1  0.38381000  0.95701000  0.98790000  1.0
  C  C655  1  0.03032000  0.40868000  0.96081000  1.0
  C  C656  1  0.99482000  0.40058000  0.98351000  1.0
  C  C657  1  0.92923000  0.48268000  0.97006000  1.0
  C  C658  1  0.90991000  0.42071000  0.99208000  1.0
  C  C659  1  0.47379000  0.97585000  0.43400000  1.0
  C  C660  1  0.42135000  0.98641000  0.44129000  1.0
  C  C661  1  0.40771000  0.98485000  0.37894000  1.0
  C  C662  1  0.35222000  0.97812000  0.41951000  1.0
  C  C663  1  0.95645000  0.53632000  0.43063000  1.0
  C  C664  1  0.99423000  0.49627000  0.45469000  1.0
  C  C665  1  0.90900000  0.49471000  0.42822000  1.0
  C  C666  1  0.94617000  0.45395000  0.45234000  1.0
  C  C667  1  0.02971000  0.41312000  0.47616000  1.0
  C  C668  1  0.06788000  0.15487000  0.01120000  1.0
  C  C669  1  0.05450000  0.22831000  0.97936000  1.0
  C  C670  1  0.03573000  0.25706000  0.94504000  1.0
  C  C671  1  0.96530000  0.29878000  0.90600000  1.0
  C  C672  1  0.17887000  0.06439000  0.48193000  1.0
  C  C673  1  0.21001000  0.04585000  0.51512000  1.0
  C  C674  1  0.77215000  0.65328000  0.91713000  1.0
  C  C675  1  0.74588000  0.62478000  0.86665000  1.0
  C  C676  1  0.76028000  0.58258000  0.84032000  1.0
  C  C677  1  0.81727000  0.56733000  0.90295000  1.0
  C  C678  1  0.82939000  0.52775000  0.87545000  1.0
  C  C679  1  0.79253000  0.49298000  0.83677000  1.0
  C  C680  1  0.43508000  0.82508000  0.91790000  1.0
  C  C681  1  0.52129000  0.80566000  0.91459000  1.0
  C  C682  1  0.56542000  0.79068000  0.89006000  1.0
  C  C683  1  0.46535000  0.84961000  0.86673000  1.0
  C  C684  1  0.50979000  0.83542000  0.84282000  1.0
  C  C685  1  0.59498000  0.81452000  0.83814000  1.0
  C  C686  1  0.63365000  0.83291000  0.47200000  1.0
  C  C687  1  0.56347000  0.82268000  0.48728000  1.0
  C  C688  1  0.53054000  0.82429000  0.51739000  1.0
  C  C689  1  0.57377000  0.88625000  0.51599000  1.0
  C  C690  1  0.54048000  0.88780000  0.54591000  1.0
  C  C691  1  0.47228000  0.87612000  0.56252000  1.0
  C  C692  1  0.74466000  0.65496000  0.56951000  1.0
  C  C693  1  0.71711000  0.59684000  0.55397000  1.0
  C  C694  1  0.72796000  0.55272000  0.53064000  1.0
  C  C695  1  0.80440000  0.56871000  0.55762000  1.0
  C  C696  1  0.81557000  0.52452000  0.53441000  1.0
  C  C697  1  0.78929000  0.46845000  0.51414000  1.0
  C  C698  1  0.37121000  0.07139000  0.06875000  1.0
  C  C699  1  0.10568000  0.35715000  0.36284000  1.0
  C  C700  1  0.61277000  0.32103000  0.52119000  1.0
  C  C701  1  0.76677000  0.16706000  0.97480000  1.0
  C  C702  1  0.81654000  0.33270000  0.80553000  1.0
  C  C703  1  0.80495000  0.29872000  0.94962000  1.0
  C  C704  1  0.69680000  0.41787000  0.89573000  1.0
  C  C705  1  0.91015000  0.32310000  0.90413000  1.0
  C  C706  1  0.35814000  0.80648000  0.81331000  1.0
  C  C707  1  0.30136000  0.82358000  0.92537000  1.0
  C  C708  1  0.41277000  0.79389000  0.90885000  1.0
  C  C709  1  0.28803000  0.71869000  0.89792000  1.0
  C  C710  1  0.46821000  0.67038000  0.86814000  1.0
  C  C711  1  0.38513000  0.61249000  0.92508000  1.0
  C  C712  1  0.39394000  0.79305000  0.61537000  1.0
  C  C713  1  0.27635000  0.83459000  0.49701000  1.0
  C  C714  1  0.42975000  0.75755000  0.49576000  1.0
  C  C715  1  0.27685000  0.94240000  0.55377000  1.0
  C  C716  1  0.69973000  0.39837000  0.62069000  1.0
  C  C717  1  0.78128000  0.31075000  0.49186000  1.0
  C  C718  1  0.75504000  0.44812000  0.51782000  1.0
  C  C719  1  0.64156000  0.34769000  0.52138000  1.0
  C  C720  1  0.61375000  0.48906000  0.54755000  1.0
  C  C721  1  0.58830000  0.48156000  0.44780000  1.0
  C  C722  1  0.68772000  0.40585000  0.65894000  1.0
  C  C723  1  0.70978000  0.37291000  0.71725000  1.0
  C  C724  1  0.75141000  0.33954000  0.74231000  1.0
  C  C725  1  0.76716000  0.38677000  0.68339000  1.0
  C  C726  1  0.80876000  0.35295000  0.70841000  1.0
  C  C727  1  0.83017000  0.32120000  0.76764000  1.0
  C  C728  1  0.35250000  0.84122000  0.78445000  1.0
  C  C729  1  0.37252000  0.85244000  0.72559000  1.0
  C  C730  1  0.40204000  0.82785000  0.69238000  1.0
  C  C731  1  0.37249000  0.77690000  0.74019000  1.0
  C  C732  1  0.40275000  0.75264000  0.70731000  1.0
  C  C733  1  0.42028000  0.76554000  0.64767000  1.0
  C  C734  1  0.50402000  0.46025000  0.93997000  1.0
  C  C735  1  0.46732000  0.50701000  0.92072000  1.0
  C  C736  1  0.38139000  0.56883000  0.91335000  1.0
  C  C737  1  0.53681000  0.52244000  0.44094000  1.0
  C  C738  1  0.45101000  0.54339000  0.43779000  1.0
  C  C739  1  0.49932000  0.49826000  0.48769000  1.0
  C  C740  1  0.81122000  0.25878000  0.97423000  1.0
  C  C741  1  0.72744000  0.27154000  0.97374000  1.0
  C  C742  1  0.69581000  0.24800000  0.96465000  1.0
  C  C743  1  0.79753000  0.19074000  0.98432000  1.0
  C  C744  1  0.24012000  0.96162000  0.07274000  1.0
  C  C745  1  0.21717000  0.91010000  0.03598000  1.0
  C  C746  1  0.21591000  0.90016000  0.99694000  1.0
  C  C747  1  0.29858000  0.89984000  0.02997000  1.0
  C  C748  1  0.29936000  0.88900000  0.99082000  1.0
  C  C749  1  0.26120000  0.86863000  0.94302000  1.0
  C  C750  1  0.23106000  0.83381000  0.48578000  1.0
  C  C751  1  0.19595000  0.81643000  0.43519000  1.0
  C  C752  1  0.20598000  0.78225000  0.40395000  1.0
  C  C753  1  0.26222000  0.74884000  0.46722000  1.0
  C  C754  1  0.27162000  0.71475000  0.43580000  1.0
  C  C755  1  0.94886000  0.28192000  0.37444000  1.0
  C  C756  1  0.90143000  0.24326000  0.39451000  1.0
  C  C757  1  0.88077000  0.23197000  0.42735000  1.0
  C  C758  1  0.88617000  0.32046000  0.42048000  1.0
  C  C759  1  0.86560000  0.30916000  0.45328000  1.0
  C  C760  1  0.82489000  0.26603000  0.47663000  1.0
  C  C761  1  0.00125000  0.19344000  0.96993000  1.0
  C  C762  1  0.98213000  0.22338000  0.93619000  1.0
  C  C763  1  0.24060000  0.71745000  0.89621000  1.0
  C  C764  1  0.09567000  0.10671000  0.45846000  1.0
  C  C765  1  0.11226000  0.06039000  0.51255000  1.0
  C  C766  1  0.14544000  0.04059000  0.54508000  1.0
  C  C767  1  0.23125000  0.98911000  0.56483000  1.0
  C  C768  1  0.51954000  0.64271000  0.85376000  1.0
  C  C769  1  0.60094000  0.57560000  0.87035000  1.0
  C  C770  1  0.62873000  0.52596000  0.88953000  1.0
  C  C771  1  0.53761000  0.55740000  0.85316000  1.0
  C  C772  1  0.56473000  0.50801000  0.87239000  1.0
  C  C773  1  0.64167000  0.44198000  0.89415000  1.0
  C  C774  1  0.46986000  0.70997000  0.48127000  1.0
  C  C775  1  0.54647000  0.63812000  0.49949000  1.0
  C  C776  1  0.57244000  0.59934000  0.52817000  1.0
  C  C777  1  0.46777000  0.64714000  0.51787000  1.0
  C  C778  1  0.49428000  0.60960000  0.54704000  1.0
  C  C779  1  0.57020000  0.53446000  0.56235000  1.0
  N  N780  1  0.77976000  0.75462000  0.72688000  1.0
  N  N781  1  0.78321000  0.79955000  0.66132000  1.0
  N  N782  1  0.10649000  0.58413000  0.19174000  1.0
  N  N783  1  0.15487000  0.53934000  0.25748000  1.0
  N  N784  1  0.51860000  0.19078000  0.23245000  1.0
  N  N785  1  0.56597000  0.17601000  0.16469000  1.0
  N  N786  1  0.01656000  0.46105000  0.96110000  1.0
  N  N787  1  0.49149000  0.42105000  0.93532000  1.0
  N  N788  1  0.47618000  0.99555000  0.39952000  1.0
  N  N789  1  0.41439000  0.51216000  0.48210000  1.0
  N  N790  1  0.95237000  0.69029000  0.01378000  1.0
  N  N791  1  0.88171000  0.75911000  0.96427000  1.0
  N  N792  1  0.71392000  0.20015000  0.98273000  1.0
  N  N793  1  0.77468000  0.88214000  0.42763000  1.0
  N  N794  1  0.70262000  0.96988000  0.39042000  1.0
  N  N795  1  0.17043000  0.67847000  0.97596000  1.0
  N  N796  1  0.59521000  0.06482000  0.92813000  1.0
  N  N797  1  0.65052000  0.98595000  0.87963000  1.0
  N  N798  1  0.63798000  0.20754000  0.44813000  1.0
  N  N799  1  0.63794000  0.27428000  0.50098000  1.0
  N  N800  1  0.97094000  0.66763000  0.51112000  1.0
  N  N801  1  0.04783000  0.66512000  0.46758000  1.0
  N  N802  1  0.18887000  0.28322000  0.02855000  1.0
  N  N803  1  0.12470000  0.38799000  0.04033000  1.0
  N  N804  1  0.42427000  0.37926000  0.04792000  1.0
  N  N805  1  0.31958000  0.42262000  0.03652000  1.0
  N  N806  1  0.36848000  0.11959000  0.06426000  1.0
  N  N807  1  0.39812000  0.18733000  0.03722000  1.0
  N  N808  1  0.40208000  0.43175000  0.38764000  1.0
  N  N809  1  0.47248000  0.32864000  0.40016000  1.0
  N  N810  1  0.27868000  0.18568000  0.42906000  1.0
  N  N811  1  0.35429000  0.20515000  0.40338000  1.0
  N  N812  1  0.18717000  0.41947000  0.40740000  1.0
  N  N813  1  0.14698000  0.36151000  0.37797000  1.0
  N  N814  1  0.18674000  0.16524000  0.19610000  1.0
  N  N815  1  0.14569000  0.15454000  0.26132000  1.0
  N  N816  1  0.51695000  0.93153000  0.94012000  1.0
  N  N817  1  0.42372000  0.96562000  0.97576000  1.0
  N  N818  1  0.94388000  0.42978000  0.97024000  1.0
  N  N819  1  0.40391000  0.96583000  0.41347000  1.0
  N  N820  1  0.90818000  0.54073000  0.43672000  1.0
  N  N821  1  0.99599000  0.44845000  0.44967000  1.0
  N  N822  1  0.05189000  0.18250000  0.97798000  1.0
  N  N823  1  0.98439000  0.26933000  0.93841000  1.0
  N  N824  1  0.78850000  0.61743000  0.88814000  1.0
  N  N825  1  0.78336000  0.53536000  0.85921000  1.0
  N  N826  1  0.47781000  0.81285000  0.89476000  1.0
  N  N827  1  0.55335000  0.82855000  0.86277000  1.0
  N  N828  1  0.59904000  0.83693000  0.49980000  1.0
  N  N829  1  0.50439000  0.87402000  0.53332000  1.0
  N  N830  1  0.75537000  0.61056000  0.54918000  1.0
  N  N831  1  0.77737000  0.51010000  0.53809000  1.0
  N  N832  1  0.22024000  0.71470000  0.93065000  1.0
  N  N833  1  0.72900000  0.37233000  0.68186000  1.0
  N  N834  1  0.78945000  0.35423000  0.74393000  1.0
  N  N835  1  0.38223000  0.81565000  0.75320000  1.0
  N  N836  1  0.39138000  0.78959000  0.67964000  1.0
  N  N837  1  0.41647000  0.52386000  0.93250000  1.0
  N  N838  1  0.50072000  0.50689000  0.44995000  1.0
  N  N839  1  0.77982000  0.23751000  0.96528000  1.0
  N  N840  1  0.24736000  0.93321000  0.04035000  1.0
  N  N841  1  0.26600000  0.86971000  0.98169000  1.0
  N  N842  1  0.24130000  0.80051000  0.45570000  1.0
  N  N843  1  0.22579000  0.73073000  0.41553000  1.0
  N  N844  1  0.92286000  0.27413000  0.40383000  1.0
  N  N845  1  0.84384000  0.27793000  0.44473000  1.0
  N  N846  1  0.12579000  0.09067000  0.49061000  1.0
  N  N847  1  0.19768000  0.01259000  0.53451000  1.0
  N  N848  1  0.54753000  0.59364000  0.87032000  1.0
  N  N849  1  0.61853000  0.48868000  0.87384000  1.0
  N  N850  1  0.49490000  0.67310000  0.50922000  1.0
  N  N851  1  0.54478000  0.57365000  0.53584000  1.0
  O  O852  1  0.62794000  0.85772000  0.91417000  1.0
  O  O853  1  0.63497000  0.90263000  0.95797000  1.0
  O  O854  1  0.77586000  0.71067000  0.87623000  1.0
  O  O855  1  0.78544000  0.79687000  0.93365000  1.0
  O  O856  1  0.81958000  0.78300000  0.87986000  1.0
  O  O857  1  0.70132000  0.88942000  0.89465000  1.0
  O  O858  1  0.72528000  0.86499000  0.83861000  1.0
  O  O859  1  0.68162000  0.79115000  0.83550000  1.0
  O  O860  1  0.79088000  0.75606000  0.80398000  1.0
  O  O861  1  0.71534000  0.77378000  0.80909000  1.0
  O  O862  1  0.81998000  0.67153000  0.44203000  1.0
  O  O863  1  0.85519000  0.61076000  0.48248000  1.0
  O  O864  1  0.69766000  0.81663000  0.51458000  1.0
  O  O865  1  0.81176000  0.77818000  0.45758000  1.0
  O  O866  1  0.79256000  0.82737000  0.50579000  1.0
  O  O867  1  0.87439000  0.68389000  0.50497000  1.0
  O  O868  1  0.85613000  0.73229000  0.55318000  1.0
  O  O869  1  0.75743000  0.72512000  0.56559000  1.0
  O  O870  1  0.75413000  0.82532000  0.58391000  1.0
  O  O871  1  0.82975000  0.76714000  0.57910000  1.0
  O  O872  1  0.09266000  0.49503000  0.98318000  1.0
  O  O873  1  0.04323000  0.55049000  0.94212000  1.0
  O  O874  1  0.19803000  0.49094000  0.99146000  1.0
  O  O875  1  0.21712000  0.49440000  0.04833000  1.0
  O  O876  1  0.10440000  0.48684000  0.01885000  1.0
  O  O877  1  0.13501000  0.61023000  0.99093000  1.0
  O  O878  1  0.15488000  0.61253000  0.04764000  1.0
  O  O879  1  0.03994000  0.60473000  0.01074000  1.0
  O  O880  1  0.05736000  0.61078000  0.06797000  1.0
  O  O881  1  0.12238000  0.49325000  0.07573000  1.0
  O  O882  1  0.15714000  0.55884000  0.11703000  1.0
  O  O883  1  0.08162000  0.60352000  0.10079000  1.0
  O  O884  1  0.50395000  0.31936000  0.97608000  1.0
  O  O885  1  0.53977000  0.30510000  0.92212000  1.0
  O  O886  1  0.44560000  0.25508000  0.99705000  1.0
  O  O887  1  0.47935000  0.20708000  0.04569000  1.0
  O  O888  1  0.50329000  0.30940000  0.00940000  1.0
  O  O889  1  0.53247000  0.17029000  0.95495000  1.0
  O  O890  1  0.57122000  0.12731000  0.00368000  1.0
  O  O891  1  0.59775000  0.22033000  0.96421000  1.0
  O  O892  1  0.62787000  0.18647000  0.01768000  1.0
  O  O893  1  0.52942000  0.26918000  0.06140000  1.0
  O  O894  1  0.58639000  0.15270000  0.08296000  1.0
  O  O895  1  0.55681000  0.23109000  0.08506000  1.0
  O  O896  1  0.51600000  0.06953000  0.39344000  1.0
  O  O897  1  0.55742000  0.01815000  0.43845000  1.0
  O  O898  1  0.53127000  0.19798000  0.43088000  1.0
  O  O899  1  0.50647000  0.23110000  0.37694000  1.0
  O  O900  1  0.45656000  0.17991000  0.41129000  1.0
  O  O901  1  0.58271000  0.15855000  0.43296000  1.0
  O  O902  1  0.61741000  0.14604000  0.37934000  1.0
  O  O903  1  0.61503000  0.06213000  0.40432000  1.0
  O  O904  1  0.59010000  0.07082000  0.34823000  1.0
  O  O905  1  0.46866000  0.16266000  0.35346000  1.0
  O  O906  1  0.54904000  0.17228000  0.30424000  1.0
  O  O907  1  0.48844000  0.16247000  0.32054000  1.0
  O  O908  1  0.31517000  0.52143000  0.44640000  1.0
  O  O909  1  0.29909000  0.55108000  0.50215000  1.0
  O  O910  1  0.22836000  0.49834000  0.44269000  1.0
  O  O911  1  0.20671000  0.49724000  0.38580000  1.0
  O  O912  1  0.31176000  0.51682000  0.41183000  1.0
  O  O913  1  0.15264000  0.61590000  0.44677000  1.0
  O  O914  1  0.12843000  0.61396000  0.39121000  1.0
  O  O915  1  0.24104000  0.63280000  0.42336000  1.0
  O  O916  1  0.21251000  0.63717000  0.36804000  1.0
  O  O917  1  0.28478000  0.52301000  0.35570000  1.0
  O  O918  1  0.18951000  0.51180000  0.35137000  1.0
  O  O919  1  0.18101000  0.57141000  0.31861000  1.0
  O  O920  1  0.71827000  0.76633000  0.46731000  1.0
  O  O921  1  0.72483000  0.74156000  0.92375000  1.0
  O  O922  1  0.63994000  0.83081000  0.88474000  1.0
  O  O923  1  0.86790000  0.39156000  0.95309000  1.0
  O  O924  1  0.82300000  0.46915000  0.97569000  1.0
  O  O925  1  0.79491000  0.45511000  0.89268000  1.0
  O  O926  1  0.35283000  0.90912000  0.44969000  1.0
  O  O927  1  0.34085000  0.97501000  0.48208000  1.0
  O  O928  1  0.41118000  0.88468000  0.51954000  1.0
  O  O929  1  0.77639000  0.67588000  0.51785000  1.0
  O  O930  1  0.31756000  0.03924000  0.00230000  1.0
  O  O931  1  0.30199000  0.99548000  0.96190000  1.0
  O  O932  1  0.23099000  0.15821000  0.99509000  1.0
  O  O933  1  0.19940000  0.19290000  0.04847000  1.0
  O  O934  1  0.31267000  0.06426000  0.03100000  1.0
  O  O935  1  0.15528000  0.11829000  0.99674000  1.0
  O  O936  1  0.13126000  0.14299000  0.05243000  1.0
  O  O937  1  0.23883000  0.01880000  0.03001000  1.0
  O  O938  1  0.22062000  0.04641000  0.08627000  1.0
  O  O939  1  0.28583000  0.10015000  0.08443000  1.0
  O  O940  1  0.17870000  0.15475000  0.12273000  1.0
  O  O941  1  0.25656000  0.12094000  0.11384000  1.0
  O  O942  1  0.06206000  0.33678000  0.44237000  1.0
  O  O943  1  0.02674000  0.34038000  0.49499000  1.0
  O  O944  1  0.15728000  0.23175000  0.45896000  1.0
  O  O945  1  0.19090000  0.18346000  0.41089000  1.0
  O  O946  1  0.08224000  0.32025000  0.40994000  1.0
  O  O947  1  0.08360000  0.18921000  0.46032000  1.0
  O  O948  1  0.11322000  0.14585000  0.40987000  1.0
  O  O949  1  0.00567000  0.28160000  0.41737000  1.0
  O  O950  1  0.03808000  0.23966000  0.36635000  1.0
  O  O951  1  0.12047000  0.27299000  0.36210000  1.0
  O  O952  1  0.07051000  0.21025000  0.33971000  1.0
  O  O953  1  0.14960000  0.16537000  0.33655000  1.0
  O  O954  1  0.71723000  0.42837000  0.92180000  1.0
  O  O955  1  0.72425000  0.38505000  0.87226000  1.0
  O  O956  1  0.80313000  0.33817000  0.96283000  1.0
  O  O957  1  0.80664000  0.29223000  0.91547000  1.0
  O  O958  1  0.88308000  0.35777000  0.92705000  1.0
  O  O959  1  0.88913000  0.30993000  0.88021000  1.0
  O  O960  1  0.80475000  0.40937000  0.84374000  1.0
  O  O961  1  0.81558000  0.30177000  0.82795000  1.0
  O  O962  1  0.81164000  0.37205000  0.82145000  1.0
  O  O963  1  0.39468000  0.63799000  0.90250000  1.0
  O  O964  1  0.37449000  0.62803000  0.95748000  1.0
  O  O965  1  0.39489000  0.77692000  0.93352000  1.0
  O  O966  1  0.40523000  0.78689000  0.87601000  1.0
  O  O967  1  0.46044000  0.68495000  0.90098000  1.0
  O  O968  1  0.34306000  0.79120000  0.94129000  1.0
  O  O969  1  0.29532000  0.81498000  0.89275000  1.0
  O  O970  1  0.30415000  0.72938000  0.92650000  1.0
  O  O971  1  0.31278000  0.71334000  0.86885000  1.0
  O  O972  1  0.42958000  0.68441000  0.84764000  1.0
  O  O973  1  0.38379000  0.79964000  0.84195000  1.0
  O  O974  1  0.33380000  0.78285000  0.81461000  1.0
  O  O975  1  0.41237000  0.79774000  0.47684000  1.0
  O  O976  1  0.41236000  0.75947000  0.52730000  1.0
  O  O977  1  0.29462000  0.85568000  0.47723000  1.0
  O  O978  1  0.29379000  0.82001000  0.52860000  1.0
  O  O979  1  0.29384000  0.93964000  0.52204000  1.0
  O  O980  1  0.29603000  0.90298000  0.57379000  1.0
  O  O981  1  0.41509000  0.84503000  0.57018000  1.0
  O  O982  1  0.35847000  0.78928000  0.60069000  1.0
  O  O983  1  0.40771000  0.81833000  0.59572000  1.0
  O  O984  1  0.61181000  0.48201000  0.47637000  1.0
  O  O985  1  0.60737000  0.44196000  0.42812000  1.0
  O  O986  1  0.72776000  0.45065000  0.49084000  1.0
  O  O987  1  0.75595000  0.42401000  0.54636000  1.0
  O  O988  1  0.61919000  0.48177000  0.51363000  1.0
  O  O989  1  0.74791000  0.34359000  0.47106000  1.0
  O  O990  1  0.77673000  0.31708000  0.52578000  1.0
  O  O991  1  0.63932000  0.37393000  0.49399000  1.0
  O  O992  1  0.66795000  0.34547000  0.54889000  1.0
  O  O993  1  0.64558000  0.45517000  0.56904000  1.0
  O  O994  1  0.73625000  0.35977000  0.60596000  1.0
  O  O995  1  0.67031000  0.42912000  0.59693000  1.0
