# generated using pymatgen
data_ZnH10C7O4
_symmetry_space_group_name_H-M   'P 1'
_cell_length_a   19.15925000
_cell_length_b   40.89931819
_cell_length_c   40.89920000
_cell_angle_alpha   59.99828679
_cell_angle_beta   89.99900000
_cell_angle_gamma   89.99999998
_symmetry_Int_Tables_number   1
_chemical_formula_structural   ZnH10C7O4
_chemical_formula_sum   'Zn36 H360 C252 O144'
_cell_volume   27754.44323720
_cell_formula_units_Z   36
loop_
 _symmetry_equiv_pos_site_id
 _symmetry_equiv_pos_as_xyz
  1  'x, y, z'
loop_
 _atom_site_type_symbol
 _atom_site_label
 _atom_site_symmetry_multiplicity
 _atom_site_fract_x
 _atom_site_fract_y
 _atom_site_fract_z
 _atom_site_occupancy
  C  C0  1  0.95739000  0.57448000  0.91412500  1.0
  C  C1  1  0.96548000  0.61367000  0.81280000  1.0
  C  C2  1  0.04654000  0.70491000  0.84577000  1.0
  C  C3  1  0.88628000  0.66591500  0.92264500  1.0
  C  C4  1  0.77565000  0.62303500  0.85267000  1.0
  C  C5  1  0.85799000  0.72448500  0.80609500  1.0
  C  C6  1  0.91309000  0.91945000  0.49418000  1.0
  C  C7  1  0.97880000  0.82048000  0.55550000  1.0
  C  C8  1  0.00793000  0.83818000  0.43975500  1.0
  C  C9  1  0.84600000  0.91787000  0.41252500  1.0
  C  C10  1  0.77576000  0.83734000  0.54045000  1.0
  C  C11  1  0.81362000  0.80635500  0.46216500  1.0
  C  C12  1  0.95383000  0.51005000  0.57440000  1.0
  C  C13  1  0.99156000  0.55737500  0.62953000  1.0
  C  C14  1  0.99160000  0.44180000  0.72620000  1.0
  C  C15  1  0.87146000  0.41643000  0.65268500  1.0
  C  C16  1  0.79458000  0.54034000  0.61383500  1.0
  C  C17  1  0.82164000  0.45967000  0.71970000  1.0
  C  C18  1  0.52752000  0.48928500  0.07958500  1.0
  C  C19  1  0.49835000  0.45381500  0.17580500  1.0
  C  C20  1  0.48851000  0.56458000  0.15919000  1.0
  C  C21  1  0.61594000  0.60445000  0.06474000  1.0
  C  C22  1  0.70790000  0.47905500  0.12932000  1.0
  C  C23  1  0.66579000  0.52729000  0.17904500  1.0
  C  C24  1  0.52376000  0.08046500  0.41777000  1.0
  C  C25  1  0.46650000  0.17371000  0.36191000  1.0
  C  C26  1  0.47577000  0.17922500  0.27112500  1.0
  C  C27  1  0.59880000  0.07664000  0.31762500  1.0
  C  C28  1  0.66778000  0.15093500  0.38572000  1.0
  C  C29  1  0.65228000  0.18634000  0.27711000  1.0
  C  C30  1  0.53579000  0.41602000  0.48689000  1.0
  C  C31  1  0.47646000  0.36303000  0.43950000  1.0
  C  C32  1  0.48489000  0.26737000  0.54454500  1.0
  C  C33  1  0.61698000  0.33370500  0.57709500  1.0
  C  C34  1  0.67813000  0.37738000  0.45234500  1.0
  C  C35  1  0.66050000  0.27126000  0.52880000  1.0
  C  C36  1  0.03643000  0.40160000  0.08167000  1.0
  C  C37  1  0.99473000  0.36513500  0.17976500  1.0
  C  C38  1  0.99668000  0.26262000  0.18375000  1.0
  C  C39  1  0.16367000  0.30493000  0.09871000  1.0
  C  C40  1  0.19099000  0.38082500  0.14729000  1.0
  C  C41  1  0.16761000  0.27122500  0.20725500  1.0
  C  C42  1  0.05039000  0.08571000  0.47959500  1.0
  C  C43  1  0.97014000  0.18106500  0.44585500  1.0
  C  C44  1  0.96611000  0.14761000  0.55762000  1.0
  C  C45  1  0.13353000  0.06513000  0.57013500  1.0
  C  C46  1  0.16986000  0.17154500  0.45220500  1.0
  C  C47  1  0.14283000  0.17172000  0.54810500  1.0
  C  C48  1  0.08006000  0.52107500  0.40110000  1.0
  C  C49  1  0.00352000  0.44887500  0.37906000  1.0
  C  C50  1  0.99540000  0.55429500  0.26637500  1.0
  C  C51  1  0.17998000  0.58788000  0.30266000  1.0
  C  C52  1  0.20746000  0.46161000  0.38136000  1.0
  C  C53  1  0.17801000  0.51203000  0.27081000  1.0
  C  C54  1  0.45252000  0.48329000  0.91802500  1.0
  C  C55  1  0.50120000  0.55450500  0.81677500  1.0
  C  C56  1  0.47299000  0.44928000  0.81476000  1.0
  C  C57  1  0.32039000  0.42353500  0.90329000  1.0
  C  C58  1  0.30926000  0.54933500  0.84445500  1.0
  C  C59  1  0.30801000  0.48833500  0.78934500  1.0
  C  C60  1  0.45039000  0.91866000  0.59405500  1.0
  C  C61  1  0.48777000  0.81074000  0.62817000  1.0
  C  C62  1  0.51396000  0.81442500  0.72161500  1.0
  C  C63  1  0.35034000  0.90369000  0.68640000  1.0
  C  C64  1  0.30662000  0.84901500  0.61265000  1.0
  C  C65  1  0.32769000  0.79868500  0.73362500  1.0
  C  C66  1  0.45941000  0.58134500  0.48693000  1.0
  C  C67  1  0.50965000  0.62397500  0.55223500  1.0
  C  C68  1  0.51169000  0.71236000  0.44374500  1.0
  C  C69  1  0.32971000  0.65714000  0.42250500  1.0
  C  C70  1  0.32854000  0.60139000  0.54655000  1.0
  C  C71  1  0.33529000  0.72188000  0.46652500  1.0
  C  C72  1  0.17940000  0.55873000  0.84331500  1.0
  C  C73  1  0.24192000  0.54967500  0.82548000  1.0
  C  C74  1  0.11525000  0.57416000  0.81677000  1.0
  C  C75  1  0.09502000  0.61349000  0.80982000  1.0
  C  C76  1  0.02715000  0.62913000  0.78718000  1.0
  C  C77  1  0.09007000  0.83731000  0.57300000  1.0
  C  C78  1  0.04998000  0.80588000  0.57068500  1.0
  C  C79  1  0.15269000  0.82243000  0.59979000  1.0
  C  C80  1  0.17510000  0.85172500  0.61083500  1.0
  C  C81  1  0.24081000  0.83962500  0.63538500  1.0
  C  C82  1  0.10732000  0.56808000  0.60185500  1.0
  C  C83  1  0.06278000  0.57078000  0.63166500  1.0
  C  C84  1  0.17612000  0.58999000  0.59329000  1.0
  C  C85  1  0.19818000  0.60344500  0.55239500  1.0
  C  C86  1  0.26660000  0.62563500  0.54182500  1.0
  C  C87  1  0.40664000  0.42383000  0.15774500  1.0
  C  C88  1  0.42890000  0.43490000  0.18700500  1.0
  C  C89  1  0.34118000  0.39915000  0.17013500  1.0
  C  C90  1  0.32240000  0.38709500  0.14111000  1.0
  C  C91  1  0.25916000  0.36055000  0.15339500  1.0
  C  C92  1  0.39146000  0.18083000  0.40878000  1.0
  C  C93  1  0.39431000  0.17197000  0.37643000  1.0
  C  C94  1  0.32443000  0.16526500  0.43199000  1.0
  C  C95  1  0.29741000  0.19154000  0.44585500  1.0
  C  C96  1  0.23329000  0.17569500  0.47144500  1.0
  C  C97  1  0.34100000  0.46303000  0.38044000  1.0
  C  C98  1  0.27256000  0.47767000  0.35826500  1.0
  C  C99  1  0.36733000  0.42631500  0.38267500  1.0
  C  C100  1  0.35750000  0.39119500  0.42196000  1.0
  C  C101  1  0.40485000  0.35829000  0.42757500  1.0
  C  C102  1  0.90962000  0.41255500  0.17630500  1.0
  C  C103  1  0.92155000  0.37055000  0.18923500  1.0
  C  C104  1  0.83263000  0.42304000  0.17429000  1.0
  C  C105  1  0.82420000  0.46563000  0.16101500  1.0
  C  C106  1  0.78425000  0.48765000  0.12359000  1.0
  C  C107  1  0.87170000  0.19600000  0.40047500  1.0
  C  C108  1  0.89639000  0.19515500  0.43682500  1.0
  C  C109  1  0.79231000  0.19676500  0.39662000  1.0
  C  C110  1  0.77031000  0.19422000  0.36143500  1.0
  C  C111  1  0.74090000  0.15531000  0.37124500  1.0
  C  C112  1  0.90955000  0.39802500  0.41393000  1.0
  C  C113  1  0.93164000  0.43465000  0.37772500  1.0
  C  C114  1  0.83020000  0.39690000  0.42024500  1.0
  C  C115  1  0.80626000  0.35972500  0.45517000  1.0
  C  C116  1  0.74355000  0.36488500  0.47573500  1.0
  C  C117  1  0.66237000  0.63812500  0.81626000  1.0
  C  C118  1  0.70013000  0.63314500  0.85169500  1.0
  C  C119  1  0.63258000  0.60081000  0.82158500  1.0
  C  C120  1  0.59184000  0.60752500  0.78630500  1.0
  C  C121  1  0.56186000  0.57086000  0.79000000  1.0
  C  C122  1  0.57187000  0.77691500  0.60554000  1.0
  C  C123  1  0.54160000  0.78024500  0.63875500  1.0
  C  C124  1  0.62299000  0.80898500  0.58059000  1.0
  C  C125  1  0.66375000  0.79943500  0.55378000  1.0
  C  C126  1  0.70885000  0.83225500  0.52433000  1.0
  C  C127  1  0.67851000  0.55020500  0.63678500  1.0
  C  C128  1  0.72613000  0.52264500  0.63176500  1.0
  C  C129  1  0.64448000  0.57996000  0.59949500  1.0
  C  C130  1  0.59738000  0.60700500  0.60536500  1.0
  C  C131  1  0.56568000  0.63790500  0.56795000  1.0
  C  C132  1  0.26661000  0.75623000  0.79684500  1.0
  C  C133  1  0.27215000  0.76936500  0.75426000  1.0
  C  C134  1  0.19206000  0.74518000  0.81310000  1.0
  C  C135  1  0.15513000  0.71693500  0.80420000  1.0
  C  C136  1  0.10770000  0.68830500  0.83626000  1.0
  C  C137  1  0.11512000  0.79770000  0.44997000  1.0
  C  C138  1  0.06601000  0.81567500  0.46667000  1.0
  C  C139  1  0.17950000  0.77854000  0.47482500  1.0
  C  C140  1  0.22534000  0.75962000  0.45785500  1.0
  C  C141  1  0.29598000  0.74613000  0.47839500  1.0
  C  C142  1  0.11056000  0.46374500  0.73151000  1.0
  C  C143  1  0.03156000  0.47025000  0.73178000  1.0
  C  C144  1  0.15258000  0.48666500  0.74528500  1.0
  C  C145  1  0.23145000  0.48422500  0.73966000  1.0
  C  C146  1  0.27501000  0.50896500  0.75083500  1.0
  C  C147  1  0.37090000  0.53714000  0.18627000  1.0
  C  C148  1  0.45062000  0.53345500  0.19238000  1.0
  C  C149  1  0.33027000  0.51595000  0.22383500  1.0
  C  C150  1  0.25172000  0.51382500  0.21695500  1.0
  C  C151  1  0.20988000  0.49017500  0.25387000  1.0
  C  C152  1  0.34990000  0.19750000  0.26651000  1.0
  C  C153  1  0.40744000  0.18137000  0.25236500  1.0
  C  C154  1  0.28028000  0.20088000  0.24624000  1.0
  C  C155  1  0.21876000  0.21217500  0.26302500  1.0
  C  C156  1  0.20715000  0.25515500  0.24388500  1.0
  C  C157  1  0.25686000  0.19887500  0.55418500  1.0
  C  C158  1  0.17807000  0.20545500  0.54596000  1.0
  C  C159  1  0.29541000  0.23665500  0.53953000  1.0
  C  C160  1  0.37283000  0.23129000  0.55099500  1.0
  C  C161  1  0.41242000  0.26903500  0.52981500  1.0
  C  C162  1  0.88622000  0.23769000  0.22181000  1.0
  C  C163  1  0.91918000  0.25895500  0.18237000  1.0
  C  C164  1  0.80644000  0.23904500  0.21890500  1.0
  C  C165  1  0.77196000  0.21468000  0.25756500  1.0
  C  C166  1  0.69279000  0.22212000  0.25564000  1.0
  C  C167  1  0.75753000  0.22251000  0.54966500  1.0
  C  C168  1  0.70665000  0.24832500  0.51812500  1.0
  C  C169  1  0.80462000  0.20011000  0.53729000  1.0
  C  C170  1  0.84915000  0.17075500  0.57037000  1.0
  C  C171  1  0.88793000  0.14341500  0.56062000  1.0
  C  C172  1  0.88950000  0.54101500  0.23784500  1.0
  C  C173  1  0.93704000  0.52669000  0.27299000  1.0
  C  C174  1  0.82654000  0.51527500  0.24346000  1.0
  C  C175  1  0.77902000  0.53319500  0.20816000  1.0
  C  C176  1  0.71069000  0.51096500  0.21407000  1.0
  C  C177  1  0.70421000  0.45363500  0.75044500  1.0
  C  C178  1  0.78060000  0.46660000  0.74686000  1.0
  C  C179  1  0.66432000  0.46246000  0.77778500  1.0
  C  C180  1  0.58834000  0.44845500  0.78385500  1.0
  C  C181  1  0.54759000  0.46267500  0.80682500  1.0
  C  C182  1  0.62781000  0.77824000  0.74437000  1.0
  C  C183  1  0.59100000  0.81672500  0.72623500  1.0
  C  C184  1  0.70723000  0.78348500  0.74450500  1.0
  C  C185  1  0.74464000  0.74661500  0.77187000  1.0
  C  C186  1  0.82445000  0.75214500  0.76960500  1.0
  C  C187  1  0.71197000  0.78152000  0.44275000  1.0
  C  C188  1  0.77103000  0.77205500  0.47149500  1.0
  C  C189  1  0.66860000  0.74662500  0.45132000  1.0
  C  C190  1  0.61782000  0.75593000  0.41868000  1.0
  C  C191  1  0.58005000  0.72070500  0.42328000  1.0
  C  C192  1  0.05081000  0.44598000  0.01178000  1.0
  C  C193  1  0.00306000  0.41723500  0.04355500  1.0
  C  C194  1  0.03821000  0.48740500  0.00185500  1.0
  C  C195  1  0.00439000  0.51069000  0.96274000  1.0
  C  C196  1  0.99303000  0.55221500  0.95178000  1.0
  C  C197  1  0.98810000  0.97249500  0.48852000  1.0
  C  C198  1  0.93135000  0.96030000  0.47032500  1.0
  C  C199  1  0.02747000  0.00717500  0.45794000  1.0
  C  C200  1  0.07171000  0.02708000  0.47408000  1.0
  C  C201  1  0.02593000  0.04682000  0.49021500  1.0
  C  C202  1  0.97059000  0.51840000  0.50839500  1.0
  C  C203  1  0.99265000  0.49735500  0.55050500  1.0
  C  C204  1  0.02835000  0.51838500  0.48214500  1.0
  C  C205  1  0.00438000  0.53944500  0.44046500  1.0
  C  C206  1  0.06502000  0.55041000  0.41196500  1.0
  C  C207  1  0.45660000  0.46550500  0.04318000  1.0
  C  C208  1  0.49272000  0.49953500  0.04262000  1.0
  C  C209  1  0.43783000  0.47266500  0.00346000  1.0
  C  C210  1  0.50220000  0.47006500  0.98194500  1.0
  C  C211  1  0.48448000  0.45494000  0.95510500  1.0
  C  C212  1  0.53127000  0.02390500  0.48246000  1.0
  C  C213  1  0.49825000  0.04095500  0.44307000  1.0
  C  C214  1  0.49864000  0.98586000  0.51066500  1.0
  C  C215  1  0.53379000  0.96933000  0.54988000  1.0
  C  C216  1  0.48113000  0.95659500  0.58239000  1.0
  C  C217  1  0.45774000  0.46812000  0.48165500  1.0
  C  C218  1  0.51509000  0.43920000  0.50453000  1.0
  C  C219  1  0.44889000  0.49855000  0.49310500  1.0
  C  C220  1  0.50982000  0.52736000  0.47922500  1.0
  C  C221  1  0.48523000  0.56875000  0.46025000  1.0
  C  C222  1  0.71284000  0.63622500  0.01982500  1.0
  C  C223  1  0.63577000  0.62480500  0.02389000  1.0
  C  C224  1  0.73928000  0.65225500  0.97916500  1.0
  C  C225  1  0.81655000  0.66477000  0.97552000  1.0
  C  C226  1  0.86607000  0.64296000  0.96334000  1.0
  C  C227  1  0.76889000  0.97184500  0.36999500  1.0
  C  C228  1  0.82178000  0.95657500  0.40230000  1.0
  C  C229  1  0.73737000  0.00922000  0.36334500  1.0
  C  C230  1  0.68741000  0.02663500  0.32902000  1.0
  C  C231  1  0.61383000  0.03524500  0.33831500  1.0
  C  C232  1  0.69465000  0.35205000  0.61469000  1.0
  C  C233  1  0.63562000  0.36417500  0.58540500  1.0
  C  C234  1  0.74704000  0.38430000  0.60321000  1.0
  C  C235  1  0.79379000  0.37799000  0.63616000  1.0
  C  C236  1  0.85154000  0.40802500  0.62244500  1.0
  C  C237  1  0.24809000  0.38894500  0.96332000  1.0
  C  C238  1  0.31305000  0.41292000  0.94375500  1.0
  C  C239  1  0.26055000  0.36758500  0.00615000  1.0
  C  C240  1  0.19601000  0.34723500  0.02999000  1.0
  C  C241  1  0.22025000  0.31765500  0.06986000  1.0
  C  C242  1  0.29550000  0.96250500  0.63357000  1.0
  C  C243  1  0.29872000  0.93490500  0.67622500  1.0
  C  C244  1  0.24637000  0.99587500  0.62453000  1.0
  C  C245  1  0.23893000  0.02311500  0.58151000  1.0
  C  C246  1  0.16249000  0.03197000  0.56828000  1.0
  C  C247  1  0.26732000  0.64354000  0.37574000  1.0
  C  C248  1  0.28536000  0.62998500  0.41718000  1.0
  C  C249  1  0.21511000  0.61636500  0.37322500  1.0
  C  C250  1  0.19413000  0.62869500  0.33218500  1.0
  C  C251  1  0.23144000  0.60615000  0.31618000  1.0
  H  H252  1  0.23343000  0.52214000  0.82687000  1.0
  H  H253  1  0.24697000  0.57177500  0.79526500  1.0
  H  H254  1  0.16433000  0.53262500  0.86972000  1.0
  H  H255  1  0.19559000  0.57929000  0.85219500  1.0
  H  H256  1  0.07075000  0.55445500  0.83020500  1.0
  H  H257  1  0.12530000  0.57594000  0.78913500  1.0
  H  H258  1  0.08966000  0.61157000  0.83782000  1.0
  H  H259  1  0.13820000  0.63351000  0.79433000  1.0
  H  H260  1  0.02403000  0.62224500  0.76415500  1.0
  H  H261  1  0.02734000  0.66033500  0.77463500  1.0
  H  H262  1  0.07868000  0.79781500  0.55212000  1.0
  H  H263  1  0.04422000  0.78080000  0.59934000  1.0
  H  H264  1  0.10829000  0.85877000  0.54427500  1.0
  H  H265  1  0.05448000  0.85204500  0.58301500  1.0
  H  H266  1  0.19612000  0.81610500  0.58577500  1.0
  H  H267  1  0.13838000  0.79589500  0.62600000  1.0
  H  H268  1  0.18319000  0.87988000  0.58520500  1.0
  H  H269  1  0.13218000  0.85492500  0.62735000  1.0
  H  H270  1  0.23959000  0.80883500  0.65606000  1.0
  H  H271  1  0.24168000  0.85407500  0.65222000  1.0
  H  H272  1  0.08601000  0.55277000  0.66006500  1.0
  H  H273  1  0.05961000  0.60060000  0.62517500  1.0
  H  H274  1  0.11887000  0.53792000  0.61145000  1.0
  H  H275  1  0.07625000  0.57920500  0.57530000  1.0
  H  H276  1  0.21700000  0.57150000  0.61334500  1.0
  H  H277  1  0.16983000  0.61515000  0.59674500  1.0
  H  H278  1  0.20157000  0.57908000  0.54741000  1.0
  H  H279  1  0.15687000  0.62259000  0.53325500  1.0
  H  H280  1  0.27482000  0.63959500  0.55891500  1.0
  H  H281  1  0.26284000  0.64844000  0.51199000  1.0
  H  H282  1  0.38965000  0.45461500  0.18764500  1.0
  H  H283  1  0.43301000  0.40920500  0.21535000  1.0
  H  H284  1  0.39640000  0.44988000  0.13022000  1.0
  H  H285  1  0.44965000  0.40792000  0.15359000  1.0
  H  H286  1  0.29762000  0.41524000  0.17336000  1.0
  H  H287  1  0.35097000  0.37352000  0.19800000  1.0
  H  H288  1  0.31239000  0.41236500  0.11294500  1.0
  H  H289  1  0.36760000  0.37184000  0.13792500  1.0
  H  H290  1  0.26369000  0.33863000  0.18367500  1.0
  H  H291  1  0.25904000  0.34523500  0.13743000  1.0
  H  H292  1  0.37311000  0.14320000  0.38599500  1.0
  H  H293  1  0.36077000  0.19218000  0.35271500  1.0
  H  H294  1  0.43623000  0.16785500  0.42844500  1.0
  H  H295  1  0.39535000  0.21202000  0.39616000  1.0
  H  H296  1  0.33491000  0.13670000  0.45650500  1.0
  H  H297  1  0.28433000  0.16179000  0.41447500  1.0
  H  H298  1  0.33944000  0.19570500  0.46220000  1.0
  H  H299  1  0.28430000  0.21964000  0.42128500  1.0
  H  H300  1  0.24568000  0.14805500  0.49679500  1.0
  H  H301  1  0.22059000  0.19555500  0.48151500  1.0
  H  H302  1  0.27182000  0.50863000  0.34622500  1.0
  H  H303  1  0.27138000  0.47324500  0.33363000  1.0
  H  H304  1  0.38119000  0.48516500  0.36504000  1.0
  H  H305  1  0.33679000  0.46064500  0.40870000  1.0
  H  H306  1  0.42343000  0.43047000  0.37504000  1.0
  H  H307  1  0.34161000  0.42114500  0.36129000  1.0
  H  H308  1  0.36811000  0.39801500  0.44470500  1.0
  H  H309  1  0.30210000  0.38208000  0.42497500  1.0
  H  H310  1  0.40794000  0.35719000  0.40099000  1.0
  H  H311  1  0.38123000  0.33163000  0.44979000  1.0
  H  H312  1  0.91354000  0.35322500  0.22023500  1.0
  H  H313  1  0.88410000  0.36072000  0.17515500  1.0
  H  H314  1  0.93698000  0.41938500  0.19617000  1.0
  H  H315  1  0.93225000  0.43038000  0.14756500  1.0
  H  H316  1  0.80846000  0.40591000  0.20263500  1.0
  H  H317  1  0.80615000  0.41545500  0.15479000  1.0
  H  H318  1  0.79730000  0.46876000  0.18335500  1.0
  H  H319  1  0.87591000  0.47953000  0.15715500  1.0
  H  H320  1  0.80501000  0.48013500  0.10279500  1.0
  H  H321  1  0.79254000  0.51841500  0.11213000  1.0
  H  H322  1  0.89355000  0.22395500  0.43311000  1.0
  H  H323  1  0.86248000  0.17638000  0.46116500  1.0
  H  H324  1  0.89422000  0.22134000  0.37560500  1.0
  H  H325  1  0.89093000  0.17038000  0.40025000  1.0
  H  H326  1  0.77195000  0.22340000  0.39406500  1.0
  H  H327  1  0.77050000  0.17297000  0.42297500  1.0
  H  H328  1  0.73084000  0.21643500  0.34495500  1.0
  H  H329  1  0.81552000  0.20041000  0.34216000  1.0
  H  H330  1  0.77420000  0.13264500  0.39310000  1.0
  H  H331  1  0.74170000  0.15229500  0.34571000  1.0
  H  H332  1  0.92817000  0.43048000  0.35292500  1.0
  H  H333  1  0.89470000  0.45797500  0.37178500  1.0
  H  H334  1  0.92591000  0.37321500  0.41150500  1.0
  H  H335  1  0.93510000  0.39593000  0.43932500  1.0
  H  H336  1  0.80262000  0.40023000  0.39481500  1.0
  H  H337  1  0.81631000  0.42138500  0.42377500  1.0
  H  H338  1  0.79326000  0.33853000  0.44664000  1.0
  H  H339  1  0.84950000  0.34769000  0.47606000  1.0
  H  H340  1  0.75713000  0.38647500  0.48364500  1.0
  H  H341  1  0.73428000  0.33810000  0.50239000  1.0
  H  H342  1  0.69619000  0.65995500  0.85235000  1.0
  H  H343  1  0.67417000  0.61083000  0.87763000  1.0
  H  H344  1  0.61841000  0.65817500  0.81002500  1.0
  H  H345  1  0.69812000  0.65108500  0.79148000  1.0
  H  H346  1  0.59760000  0.58826500  0.84661500  1.0
  H  H347  1  0.67562000  0.58051500  0.82700500  1.0
  H  H348  1  0.54896000  0.62818500  0.78015000  1.0
  H  H349  1  0.62790000  0.62013500  0.76170500  1.0
  H  H350  1  0.60348000  0.54913000  0.79864500  1.0
  H  H351  1  0.54394000  0.57666000  0.76175000  1.0
  H  H352  1  0.51647000  0.75298000  0.65886500  1.0
  H  H353  1  0.58429000  0.78420500  0.65488000  1.0
  H  H354  1  0.60020000  0.74956000  0.61787000  1.0
  H  H355  1  0.52887000  0.77565000  0.58791000  1.0
  H  H356  1  0.66028000  0.81315000  0.59897500  1.0
  H  H357  1  0.59319000  0.83562500  0.56375000  1.0
  H  H358  1  0.69716000  0.77417500  0.57054500  1.0
  H  H359  1  0.62551000  0.79197000  0.53809500  1.0
  H  H360  1  0.67856000  0.85896000  0.51233000  1.0
  H  H361  1  0.72059000  0.82724000  0.50067500  1.0
  H  H362  1  0.73528000  0.49716500  0.65956000  1.0
  H  H363  1  0.69938000  0.51315500  0.61384000  1.0
  H  H364  1  0.63636000  0.53351500  0.65699500  1.0
  H  H365  1  0.70877000  0.56432000  0.64949000  1.0
  H  H366  1  0.61394000  0.56521000  0.58763500  1.0
  H  H367  1  0.68475000  0.59726500  0.57850000  1.0
  H  H368  1  0.55520000  0.59102000  0.62594500  1.0
  H  H369  1  0.62921000  0.62111000  0.61748000  1.0
  H  H370  1  0.60710000  0.65208000  0.54625500  1.0
  H  H371  1  0.54264000  0.66028000  0.57244000  1.0
  H  H372  1  0.28187000  0.74471000  0.75039000  1.0
  H  H373  1  0.22187000  0.78192500  0.73987000  1.0
  H  H374  1  0.30232000  0.73188000  0.81285000  1.0
  H  H375  1  0.28370000  0.77886000  0.80256500  1.0
  H  H376  1  0.15980000  0.77122500  0.80189000  1.0
  H  H377  1  0.19614000  0.73316500  0.84417000  1.0
  H  H378  1  0.12399000  0.73271000  0.77785000  1.0
  H  H379  1  0.19484000  0.70025500  0.79895500  1.0
  H  H380  1  0.13962000  0.67182000  0.86214500  1.0
  H  H381  1  0.08700000  0.66863500  0.82772000  1.0
  H  H382  1  0.04298000  0.79330500  0.49356500  1.0
  H  H383  1  0.09611000  0.83488500  0.47329500  1.0
  H  H384  1  0.08510000  0.77651500  0.44619000  1.0
  H  H385  1  0.13393000  0.81997500  0.42177000  1.0
  H  H386  1  0.16225000  0.75678000  0.50358000  1.0
  H  H387  1  0.21066000  0.80019500  0.47724000  1.0
  H  H388  1  0.19636000  0.73513000  0.45975000  1.0
  H  H389  1  0.23546000  0.78001500  0.42749500  1.0
  H  H390  1  0.28769000  0.72992500  0.50948000  1.0
  H  H391  1  0.32846000  0.77124500  0.47162500  1.0
  H  H392  1  0.01699000  0.46651000  0.75977500  1.0
  H  H393  1  0.01837000  0.49948000  0.71003000  1.0
  H  H394  1  0.12272000  0.43326000  0.75027000  1.0
  H  H395  1  0.12653000  0.47189500  0.70223500  1.0
  H  H396  1  0.14165000  0.47571000  0.77575000  1.0
  H  H397  1  0.13591000  0.51674000  0.72916500  1.0
  H  H398  1  0.24889000  0.45427000  0.75513500  1.0
  H  H399  1  0.24081000  0.49461500  0.70917500  1.0
  H  H400  1  0.24364000  0.53279500  0.74880500  1.0
  H  H401  1  0.31794000  0.52253500  0.73004500  1.0
  H  H402  1  0.46341000  0.53602000  0.21752500  1.0
  H  H403  1  0.46819000  0.50533000  0.19803500  1.0
  H  H404  1  0.35508000  0.56738000  0.17189000  1.0
  H  H405  1  0.35666000  0.52573500  0.16750500  1.0
  H  H406  1  0.33763000  0.53078000  0.24016500  1.0
  H  H407  1  0.35146000  0.48683000  0.24075500  1.0
  H  H408  1  0.22961000  0.54271500  0.19998000  1.0
  H  H409  1  0.24597000  0.49993000  0.19967000  1.0
  H  H410  1  0.24211000  0.46678500  0.27562000  1.0
  H  H411  1  0.16614000  0.47605000  0.24795000  1.0
  H  H412  1  0.39214000  0.15266000  0.25827000  1.0
  H  H413  1  0.41381000  0.20018000  0.22140000  1.0
  H  H414  1  0.34320000  0.17836000  0.29743000  1.0
  H  H415  1  0.36557000  0.22586000  0.26148500  1.0
  H  H416  1  0.26780000  0.17301000  0.24909000  1.0
  H  H417  1  0.28645000  0.22136000  0.21559500  1.0
  H  H418  1  0.17010000  0.19861500  0.26069500  1.0
  H  H419  1  0.22727000  0.20080500  0.29374000  1.0
  H  H420  1  0.25808000  0.26997500  0.23860500  1.0
  H  H421  1  0.17765000  0.26166000  0.26336000  1.0
  H  H422  1  0.15400000  0.21146000  0.56713000  1.0
  H  H423  1  0.16934000  0.23019500  0.51731000  1.0
  H  H424  1  0.26488000  0.18085500  0.58516500  1.0
  H  H425  1  0.27929000  0.18389000  0.54018500  1.0
  H  H426  1  0.26985000  0.25340500  0.55083000  1.0
  H  H427  1  0.29129000  0.25282500  0.50817000  1.0
  H  H428  1  0.37658000  0.21984500  0.58200500  1.0
  H  H429  1  0.39718000  0.21070500  0.54417000  1.0
  H  H430  1  0.41716000  0.27656500  0.49983500  1.0
  H  H431  1  0.38277000  0.29194500  0.53080500  1.0
  H  H432  1  0.90784000  0.24352000  0.16701000  1.0
  H  H433  1  0.89615000  0.28766500  0.16564500  1.0
  H  H434  1  0.90410000  0.20778000  0.23645000  1.0
  H  H435  1  0.90301000  0.25090000  0.23862500  1.0
  H  H436  1  0.78938000  0.22855000  0.19976000  1.0
  H  H437  1  0.78912000  0.26889000  0.20665500  1.0
  H  H438  1  0.78351000  0.18445500  0.26739500  1.0
  H  H439  1  0.79537000  0.22149000  0.27828500  1.0
  H  H440  1  0.67419000  0.23612500  0.22589000  1.0
  H  H441  1  0.68160000  0.24122500  0.26703500  1.0
  H  H442  1  0.73605000  0.26792000  0.49214000  1.0
  H  H443  1  0.67250000  0.23102500  0.51069500  1.0
  H  H444  1  0.79075000  0.23987500  0.55749000  1.0
  H  H445  1  0.72673000  0.20242000  0.57487000  1.0
  H  H446  1  0.83959000  0.21991000  0.51403000  1.0
  H  H447  1  0.77111000  0.18534000  0.52649500  1.0
  H  H448  1  0.88543000  0.18553000  0.57991500  1.0
  H  H449  1  0.81398000  0.15353000  0.59464500  1.0
  H  H450  1  0.86808000  0.14584500  0.53394000  1.0
  H  H451  1  0.87632000  0.11383000  0.58266500  1.0
  H  H452  1  0.90593000  0.52250000  0.29774500  1.0
  H  H453  1  0.95998000  0.49885500  0.28037000  1.0
  H  H454  1  0.86946000  0.56947500  0.23033000  1.0
  H  H455  1  0.92129000  0.54384500  0.21376500  1.0
  H  H456  1  0.79618000  0.51094000  0.26850000  1.0
  H  H457  1  0.84548000  0.48735500  0.24864000  1.0
  H  H458  1  0.76551000  0.56249500  0.20106000  1.0
  H  H459  1  0.80819000  0.53470000  0.18389500  1.0
  H  H460  1  0.67987000  0.51142500  0.23684000  1.0
  H  H461  1  0.72220000  0.48090000  0.22350000  1.0
  H  H462  1  0.78249000  0.49720000  0.73767500  1.0
  H  H463  1  0.80588000  0.45052000  0.77500500  1.0
  H  H464  1  0.67872000  0.46861000  0.72224000  1.0
  H  H465  1  0.70241000  0.42273500  0.76100500  1.0
  H  H466  1  0.66481000  0.49355500  0.76619500  1.0
  H  H467  1  0.69144000  0.44884500  0.80558000  1.0
  H  H468  1  0.56253000  0.45898500  0.75598500  1.0
  H  H469  1  0.58805000  0.41703000  0.79916500  1.0
  H  H470  1  0.54738000  0.49398500  0.79081500  1.0
  H  H471  1  0.57445000  0.45385000  0.83412500  1.0
  H  H472  1  0.59920000  0.82977000  0.74414000  1.0
  H  H473  1  0.61415000  0.83623000  0.69810500  1.0
  H  H474  1  0.60833000  0.76052500  0.77378000  1.0
  H  H475  1  0.61564000  0.76367500  0.72821500  1.0
  H  H476  1  0.71892000  0.80467000  0.75328500  1.0
  H  H477  1  0.72766000  0.79444500  0.71538500  1.0
  H  H478  1  0.72551000  0.73739500  0.80094500  1.0
  H  H479  1  0.73115000  0.72416500  0.76514000  1.0
  H  H480  1  0.83728000  0.78095000  0.76424000  1.0
  H  H481  1  0.84542000  0.74878500  0.74609500  1.0
  H  H482  1  0.74946000  0.75994000  0.50052000  1.0
  H  H483  1  0.80629000  0.75069000  0.47107000  1.0
  H  H484  1  0.67721000  0.80330500  0.44282500  1.0
  H  H485  1  0.73531000  0.79333000  0.41409000  1.0
  H  H486  1  0.63907000  0.73680500  0.47805500  1.0
  H  H487  1  0.70442000  0.72363500  0.45488000  1.0
  H  H488  1  0.57984000  0.77789000  0.41560500  1.0
  H  H489  1  0.64814000  0.76811500  0.39194000  1.0
  H  H490  1  0.61386000  0.69524000  0.43775500  1.0
  H  H491  1  0.56963000  0.72443000  0.39488000  1.0
  H  H492  1  0.99156000  0.39360500  0.03827500  1.0
  H  H493  1  0.95228000  0.43045500  0.04348000  1.0
  H  H494  1  0.10658000  0.43852000  0.01957000  1.0
  H  H495  1  0.04248000  0.44292000  0.98651000  1.0
  H  H496  1  0.08913000  0.50042500  0.00186000  1.0
  H  H497  1  0.00475000  0.48880500  0.02338000  1.0
  H  H498  1  0.03854000  0.50985000  0.94114500  1.0
  H  H499  1  0.95339000  0.49747000  0.96308000  1.0
  H  H500  1  0.04355000  0.56583000  0.95130000  1.0
  H  H501  1  0.95934000  0.55338000  0.97331000  1.0
  H  H502  1  0.88376000  0.97753500  0.46623500  1.0
  H  H503  1  0.94906000  0.96558000  0.44218000  1.0
  H  H504  1  0.96279000  0.97888500  0.50917500  1.0
  H  H505  1  0.02635000  0.94929500  0.50413500  1.0
  H  H506  1  0.99016000  0.02791500  0.43688500  1.0
  H  H507  1  0.06243000  0.99775500  0.44252500  1.0
  H  H508  1  0.10688000  0.00634000  0.49652500  1.0
  H  H509  1  0.10594000  0.04756000  0.45090500  1.0
  H  H510  1  0.97141000  0.05009000  0.47967500  1.0
  H  H511  1  0.02316000  0.02890000  0.52148500  1.0
  H  H512  1  0.98579000  0.46641000  0.56265000  1.0
  H  H513  1  0.04907000  0.50210000  0.55295000  1.0
  H  H514  1  0.92257000  0.50500000  0.50514000  1.0
  H  H515  1  0.95834000  0.54843500  0.49878000  1.0
  H  H516  1  0.04303000  0.48889500  0.49061000  1.0
  H  H517  1  0.07496000  0.53279000  0.48537000  1.0
  H  H518  1  0.96481000  0.52223000  0.43585500  1.0
  H  H519  1  0.97813000  0.56613000  0.43454500  1.0
  H  H520  1  0.11326000  0.55524500  0.42399500  1.0
  H  H521  1  0.05176000  0.57748000  0.38609500  1.0
  H  H522  1  0.53352000  0.51127000  0.02035000  1.0
  H  H523  1  0.45391000  0.52238000  0.03550500  1.0
  H  H524  1  0.48971000  0.43975000  0.05740500  1.0
  H  H525  1  0.40795000  0.45910000  0.06014000  1.0
  H  H526  1  0.41234000  0.50071000  0.98673000  1.0
  H  H527  1  0.39861000  0.45100000  0.00721500  1.0
  H  H528  1  0.52822000  0.49807000  0.96616000  1.0
  H  H529  1  0.54128000  0.45033500  0.00238000  1.0
  H  H530  1  0.44974000  0.42994500  0.96940000  1.0
  H  H531  1  0.53312000  0.44431500  0.94880500  1.0
  H  H532  1  0.50995000  0.02302000  0.43038000  1.0
  H  H533  1  0.44064000  0.04219500  0.44554500  1.0
  H  H534  1  0.58832000  0.02027500  0.48020000  1.0
  H  H535  1  0.52354000  0.04337500  0.49379500  1.0
  H  H536  1  0.50479000  0.96570000  0.50008000  1.0
  H  H537  1  0.44162000  0.99010000  0.51237500  1.0
  H  H538  1  0.56823000  0.94535000  0.55483500  1.0
  H  H539  1  0.56847000  0.99061000  0.55094500  1.0
  H  H540  1  0.43836000  0.97762500  0.57427000  1.0
  H  H541  1  0.50791000  0.95543000  0.60708000  1.0
  H  H542  1  0.56254000  0.45427500  0.50556500  1.0
  H  H543  1  0.49680000  0.42053000  0.53401500  1.0
  H  H544  1  0.46872000  0.48232000  0.45082000  1.0
  H  H545  1  0.40745000  0.45279000  0.48642000  1.0
  H  H546  1  0.44426000  0.48485000  0.52434500  1.0
  H  H547  1  0.39846000  0.51317000  0.48118000  1.0
  H  H548  1  0.54538000  0.52112500  0.50316500  1.0
  H  H549  1  0.54192000  0.52464500  0.45804000  1.0
  H  H550  1  0.44389000  0.57408000  0.43907000  1.0
  H  H551  1  0.52941000  0.58744000  0.44388000  1.0
  H  H552  1  0.60322000  0.65062000  0.00836000  1.0
  H  H553  1  0.62717000  0.60590500  0.01197000  1.0
  H  H554  1  0.71936000  0.65794000  0.02843500  1.0
  H  H555  1  0.74512000  0.61117500  0.03889500  1.0
  H  H556  1  0.70681000  0.67706500  0.95989500  1.0
  H  H557  1  0.73169000  0.63074500  0.97040500  1.0
  H  H558  1  0.81961000  0.69574500  0.95564500  1.0
  H  H559  1  0.83611000  0.66088500  0.00287500  1.0
  H  H560  1  0.84399000  0.61530000  0.96948000  1.0
  H  H561  1  0.91492000  0.63681000  0.98008000  1.0
  H  H562  1  0.86764000  0.97579000  0.39292500  1.0
  H  H563  1  0.79831000  0.95582500  0.42757000  1.0
  H  H564  1  0.79540000  0.97644000  0.34379500  1.0
  H  H565  1  0.72617000  0.95090500  0.37702000  1.0
  H  H566  1  0.78012000  0.02968000  0.35822000  1.0
  H  H567  1  0.71088000  0.00383000  0.38979000  1.0
  H  H568  1  0.71231000  0.05251000  0.30590000  1.0
  H  H569  1  0.68117000  0.00734500  0.31737500  1.0
  H  H570  1  0.60634000  0.02418500  0.36904000  1.0
  H  H571  1  0.57468000  0.02104000  0.32955500  1.0
  H  H572  1  0.58872000  0.37124500  0.59666500  1.0
  H  H573  1  0.65015000  0.38984000  0.55834500  1.0
  H  H574  1  0.67133000  0.34392500  0.64267000  1.0
  H  H575  1  0.72339000  0.32703000  0.61763500  1.0
  H  H576  1  0.71861000  0.41143500  0.59315500  1.0
  H  H577  1  0.77959000  0.38668000  0.57955000  1.0
  H  H578  1  0.76040000  0.37934000  0.65777000  1.0
  H  H579  1  0.81804000  0.34945500  0.64938000  1.0
  H  H580  1  0.89801000  0.39723000  0.61450000  1.0
  H  H581  1  0.83448000  0.43477000  0.59716500  1.0
  H  H582  1  0.31270000  0.43866000  0.94647500  1.0
  H  H583  1  0.36053000  0.39624000  0.95817000  1.0
  H  H584  1  0.20173000  0.40769000  0.95614000  1.0
  H  H585  1  0.23843000  0.36810500  0.95387500  1.0
  H  H586  1  0.27962000  0.38761500  0.01515000  1.0
  H  H587  1  0.30273000  0.34655500  0.01212500  1.0
  H  H588  1  0.16097000  0.36840500  0.03109500  1.0
  H  H589  1  0.16677000  0.33289500  0.01720000  1.0
  H  H590  1  0.24185000  0.29291500  0.06889500  1.0
  H  H591  1  0.26234000  0.33002000  0.07912000  1.0
  H  H592  1  0.31221000  0.95038000  0.69129500  1.0
  H  H593  1  0.24628000  0.92191500  0.68585500  1.0
  H  H594  1  0.34870000  0.97352000  0.62280500  1.0
  H  H595  1  0.27611000  0.94721500  0.61921500  1.0
  H  H596  1  0.26746000  0.01191000  0.63772500  1.0
  H  H597  1  0.19476000  0.98446500  0.63788000  1.0
  H  H598  1  0.26812000  0.04968500  0.57319500  1.0
  H  H599  1  0.26365000  0.01057000  0.56568000  1.0
  H  H600  1  0.12885000  0.00678000  0.58477500  1.0
  H  H601  1  0.16073000  0.03882500  0.53833000  1.0
  H  H602  1  0.23698000  0.62450000  0.43419000  1.0
  H  H603  1  0.31390000  0.60269000  0.42934000  1.0
  H  H604  1  0.24343000  0.67214000  0.36290000  1.0
  H  H605  1  0.31569000  0.64519500  0.35991500  1.0
  H  H606  1  0.16722000  0.61595000  0.38875500  1.0
  H  H607  1  0.23641000  0.58712000  0.38809500  1.0
  H  H608  1  0.13647000  0.62562000  0.33157500  1.0
  H  H609  1  0.20455000  0.65933500  0.31327000  1.0
  H  H610  1  0.26709000  0.58419500  0.33714000  1.0
  H  H611  1  0.26386000  0.62607500  0.29169000  1.0
  O  O612  1  0.98491000  0.68842000  0.85282000  1.0
  O  O613  1  0.05564000  0.73313000  0.85200500  1.0
  O  O614  1  0.82209000  0.64430000  0.85709000  1.0
  O  O615  1  0.79196000  0.59318000  0.85006500  1.0
  O  O616  1  0.93445000  0.58291500  0.81880000  1.0
  O  O617  1  0.94335000  0.62911000  0.83209500  1.0
  O  O618  1  0.89258000  0.69497500  0.80955500  1.0
  O  O619  1  0.85282000  0.72917500  0.83538500  1.0
  O  O620  1  0.87085000  0.65257500  0.89903000  1.0
  O  O621  1  0.92009000  0.69882500  0.91104000  1.0
  O  O622  1  0.96568000  0.61164000  0.89525500  1.0
  O  O623  1  0.91707000  0.55601000  0.90264000  1.0
  O  O624  1  0.95225000  0.84899000  0.45084000  1.0
  O  O625  1  0.01172000  0.84733000  0.40409500  1.0
  O  O626  1  0.83615000  0.84387500  0.52351500  1.0
  O  O627  1  0.77600000  0.84244000  0.56925500  1.0
  O  O628  1  0.93782000  0.82805500  0.57695000  1.0
  O  O629  1  0.96555000  0.83041000  0.51998000  1.0
  O  O630  1  0.84404000  0.80952500  0.48954000  1.0
  O  O631  1  0.82031000  0.83353500  0.42700500  1.0
  O  O632  1  0.83324000  0.88906000  0.44794000  1.0
  O  O633  1  0.88032000  0.91266500  0.38671000  1.0
  O  O634  1  0.92423000  0.89778500  0.47914500  1.0
  O  O635  1  0.88316000  0.90793500  0.52737500  1.0
  O  O636  1  0.96749000  0.44859500  0.69308500  1.0
  O  O637  1  0.98208000  0.40802500  0.75552000  1.0
  O  O638  1  0.85483000  0.52375000  0.62532000  1.0
  O  O639  1  0.79807000  0.57251500  0.58285000  1.0
  O  O640  1  0.94969000  0.58257000  0.60340000  1.0
  O  O641  1  0.98181000  0.52046000  0.64662500  1.0
  O  O642  1  0.85728000  0.48764000  0.69221500  1.0
  O  O643  1  0.82671000  0.42560500  0.72442500  1.0
  O  O644  1  0.85735000  0.45129000  0.64716000  1.0
  O  O645  1  0.89933000  0.38884500  0.68505000  1.0
  O  O646  1  0.95425000  0.48740000  0.61168500  1.0
  O  O647  1  0.92634000  0.54437000  0.55717500  1.0
  O  O648  1  0.52470000  0.55918500  0.13480000  1.0
  O  O649  1  0.48890000  0.59837500  0.15545000  1.0
  O  O650  1  0.66446000  0.50587500  0.12494000  1.0
  O  O651  1  0.68685000  0.44485500  0.13997000  1.0
  O  O652  1  0.55360000  0.43244000  0.18451000  1.0
  O  O653  1  0.50067000  0.48906500  0.14838000  1.0
  O  O654  1  0.62109000  0.50555000  0.17387500  1.0
  O  O655  1  0.67091000  0.56303000  0.15280000  1.0
  O  O656  1  0.61567000  0.56615000  0.08332500  1.0
  O  O657  1  0.60294000  0.62469500  0.08184500  1.0
  O  O658  1  0.53483000  0.51577500  0.08890500  1.0
  O  O659  1  0.55114000  0.45468500  0.10073000  1.0
  O  O660  1  0.49975000  0.14607000  0.29744000  1.0
  O  O661  1  0.50737000  0.21053500  0.26408000  1.0
  O  O662  1  0.61455000  0.14455000  0.36970500  1.0
  O  O663  1  0.65251000  0.15493500  0.41452000  1.0
  O  O664  1  0.51758000  0.18611000  0.37407500  1.0
  O  O665  1  0.47986000  0.15084000  0.34889000  1.0
  O  O666  1  0.61970000  0.17848000  0.30853500  1.0
  O  O667  1  0.64254000  0.16439500  0.26288500  1.0
  O  O668  1  0.61382000  0.09716500  0.33441000  1.0
  O  O669  1  0.57114000  0.09232000  0.28277000  1.0
  O  O670  1  0.53770000  0.09100500  0.38200000  1.0
  O  O671  1  0.52875000  0.10290000  0.43247000  1.0
  O  O672  1  0.51099000  0.29724000  0.54450500  1.0
  O  O673  1  0.51921000  0.23529500  0.56123000  1.0
  O  O674  1  0.61617000  0.36460000  0.46585000  1.0
  O  O675  1  0.67631000  0.40816500  0.41986000  1.0
  O  O676  1  0.51742000  0.38905500  0.41332000  1.0
  O  O677  1  0.49148000  0.34396000  0.47604000  1.0
  O  O678  1  0.62427000  0.29972000  0.50238500  1.0
  O  O679  1  0.65483000  0.26360000  0.56383000  1.0
  O  O680  1  0.62810000  0.34014500  0.54173500  1.0
  O  O681  1  0.58987000  0.30101000  0.60442500  1.0
  O  O682  1  0.53710000  0.37870000  0.50878000  1.0
  O  O683  1  0.55614000  0.43437000  0.45112500  1.0
  O  O684  1  0.02899000  0.28766000  0.15290500  1.0
  O  O685  1  0.03264000  0.23623000  0.21190000  1.0
  O  O686  1  0.13133000  0.36615500  0.14643000  1.0
  O  O687  1  0.18588000  0.41485500  0.14183500  1.0
  O  O688  1  0.04323000  0.38810500  0.17968000  1.0
  O  O689  1  0.00531000  0.34253000  0.16574500  1.0
  O  O690  1  0.12920000  0.30178500  0.19557000  1.0
  O  O691  1  0.17034000  0.25554000  0.18627000  1.0
  O  O692  1  0.15414000  0.32454000  0.11695500  1.0
  O  O693  1  0.13242000  0.27154500  0.10971000  1.0
  O  O694  1  0.04668000  0.36453000  0.10141500  1.0
  O  O695  1  0.05313000  0.42551000  0.09347500  1.0
  O  O696  1  0.00272000  0.12297500  0.55272000  1.0
  O  O697  1  0.99637000  0.17745500  0.55533000  1.0
  O  O698  1  0.11136000  0.15728000  0.46956000  1.0
  O  O699  1  0.16959000  0.17914000  0.41745000  1.0
  O  O700  1  0.00937000  0.18537000  0.41731000  1.0
  O  O701  1  0.98909000  0.16169000  0.48192000  1.0
  O  O702  1  0.11103000  0.17472500  0.51809500  1.0
  O  O703  1  0.13985000  0.13957500  0.57971500  1.0
  O  O704  1  0.13706000  0.09970500  0.53892500  1.0
  O  O705  1  0.09988000  0.05984000  0.60127000  1.0
  O  O706  1  0.04336000  0.09590500  0.50548500  1.0
  O  O707  1  0.07093000  0.10857000  0.44429000  1.0
  O  O708  1  0.04741000  0.54617500  0.29033000  1.0
  O  O709  1  0.99723000  0.58702000  0.23488000  1.0
  O  O710  1  0.14596000  0.47581000  0.36909000  1.0
  O  O711  1  0.20773000  0.43648500  0.41696500  1.0
  O  O712  1  0.04223000  0.42944500  0.40984000  1.0
  O  O713  1  0.02201000  0.48190000  0.34974500  1.0
  O  O714  1  0.14422000  0.49363000  0.30335000  1.0
  O  O715  1  0.18043000  0.54892000  0.25343000  1.0
  O  O716  1  0.17335000  0.54969000  0.32246000  1.0
  O  O717  1  0.14500000  0.60984500  0.27032000  1.0
  O  O718  1  0.07570000  0.53148000  0.36467000  1.0
  O  O719  1  0.10070000  0.48731500  0.42811000  1.0
  O  O720  1  0.43905000  0.44928000  0.84281500  1.0
  O  O721  1  0.44478000  0.43237000  0.79787000  1.0
  O  O722  1  0.36095000  0.52669000  0.84964000  1.0
  O  O723  1  0.32302000  0.57373000  0.85500500  1.0
  O  O724  1  0.47749000  0.57288000  0.83350000  1.0
  O  O725  1  0.47435000  0.52241500  0.82176500  1.0
  O  O726  1  0.35217000  0.50668000  0.79935000  1.0
  O  O727  1  0.29540000  0.45257000  0.81287000  1.0
  O  O728  1  0.32337000  0.46056500  0.87676000  1.0
  O  O729  1  0.33337000  0.39635000  0.89465500  1.0
  O  O730  1  0.44728000  0.47326000  0.89182500  1.0
  O  O731  1  0.43215000  0.51635000  0.91332500  1.0
  O  O732  1  0.48080000  0.84526500  0.69721000  1.0
  O  O733  1  0.47952000  0.78292500  0.74243500  1.0
  O  O734  1  0.36668000  0.85158000  0.62573000  1.0
  O  O735  1  0.30895000  0.85658500  0.57784000  1.0
  O  O736  1  0.46332000  0.82861500  0.59314000  1.0
  O  O737  1  0.46662000  0.81735000  0.65534000  1.0
  O  O738  1  0.34666000  0.80729500  0.69922000  1.0
  O  O739  1  0.35217000  0.81933500  0.74702500  1.0
  O  O740  1  0.34277000  0.88033500  0.67199500  1.0
  O  O741  1  0.39897000  0.89746500  0.71263000  1.0
  O  O742  1  0.44314000  0.89516000  0.63081000  1.0
  O  O743  1  0.43199000  0.91093000  0.56738500  1.0
  O  O744  1  0.47294000  0.68531500  0.44483000  1.0
  O  O745  1  0.49441000  0.72824000  0.46367000  1.0
  O  O746  1  0.38186000  0.61355500  0.52410000  1.0
  O  O747  1  0.33564000  0.56705000  0.57423000  1.0
  O  O748  1  0.49000000  0.58811500  0.57205500  1.0
  O  O749  1  0.48183000  0.64908000  0.51939500  1.0
  O  O750  1  0.36548000  0.69029000  0.49206000  1.0
  O  O751  1  0.33968000  0.73107000  0.43108500  1.0
  O  O752  1  0.33472000  0.65225500  0.45761000  1.0
  O  O753  1  0.36383000  0.68534500  0.39319000  1.0
  O  O754  1  0.45179000  0.61829000  0.47263500  1.0
  O  O755  1  0.44502000  0.55561500  0.52244000  1.0
  Zn  Zn756  1  0.90892000  0.69591000  0.87203500  1.0
  Zn  Zn757  1  0.87343000  0.56685000  0.85836000  1.0
  Zn  Zn758  1  0.91746000  0.65325500  0.85698500  1.0
  Zn  Zn759  1  0.87509000  0.86913000  0.42543000  1.0
  Zn  Zn760  1  0.86456000  0.86072000  0.56909000  1.0
  Zn  Zn761  1  0.89285000  0.85186500  0.48566000  1.0
  Zn  Zn762  1  0.88970000  0.42626500  0.69149000  1.0
  Zn  Zn763  1  0.89080000  0.57884000  0.56975500  1.0
  Zn  Zn764  1  0.91183000  0.48615500  0.65407000  1.0
  Zn  Zn765  1  0.60377000  0.57918000  0.11605500  1.0
  Zn  Zn766  1  0.59753000  0.43142000  0.14576000  1.0
  Zn  Zn767  1  0.57438000  0.52299000  0.12712500  1.0
  Zn  Zn768  1  0.58074000  0.12826500  0.29146000  1.0
  Zn  Zn769  1  0.55752000  0.15159500  0.41925000  1.0
  Zn  Zn770  1  0.56334000  0.13545000  0.33794000  1.0
  Zn  Zn771  1  0.59363000  0.29603500  0.56556500  1.0
  Zn  Zn772  1  0.58276000  0.42209000  0.41481500  1.0
  Zn  Zn773  1  0.56860000  0.33574500  0.50738000  1.0
  Zn  Zn774  1  0.11777000  0.28176000  0.14440000  1.0
  Zn  Zn775  1  0.09052000  0.42368000  0.13685500  1.0
  Zn  Zn776  1  0.08409000  0.32870000  0.14787000  1.0
  Zn  Zn777  1  0.09117000  0.10746000  0.57036500  1.0
  Zn  Zn778  1  0.08487000  0.16044500  0.41258500  1.0
  Zn  Zn779  1  0.06689000  0.13607500  0.51258500  1.0
  Zn  Zn780  1  0.13231000  0.56519500  0.28019000  1.0
  Zn  Zn781  1  0.11715000  0.44052000  0.43215000  1.0
  Zn  Zn782  1  0.10094000  0.51315500  0.33220500  1.0
  Zn  Zn783  1  0.34889000  0.43742000  0.85388000  1.0
  Zn  Zn784  1  0.41477000  0.56364500  0.87157500  1.0
  Zn  Zn785  1  0.39939000  0.48964500  0.84620500  1.0
  Zn  Zn786  1  0.39883000  0.85778000  0.70953000  1.0
  Zn  Zn787  1  0.40257000  0.86865000  0.56504500  1.0
  Zn  Zn788  1  0.40631000  0.84810500  0.66549500  1.0
  Zn  Zn789  1  0.38243000  0.69237000  0.43011000  1.0
  Zn  Zn790  1  0.42728000  0.55588000  0.56745500  1.0
  Zn  Zn791  1  0.41336000  0.65330000  0.48452500  1.0
