# generated using pymatgen
data_Mn5Si2H168C224(N16O13)2
_symmetry_space_group_name_H-M   'P 1'
_cell_length_a   24.18290000
_cell_length_b   25.17970000
_cell_length_c   56.19410000
_cell_angle_alpha   96.47400000
_cell_angle_beta   97.23800000
_cell_angle_gamma   90.72500000
_symmetry_Int_Tables_number   1
_chemical_formula_structural   Mn5Si2H168C224(N16O13)2
_chemical_formula_sum   'Mn10 Si4 H336 C448 N64 O52'
_cell_volume   33715.95403836
_cell_formula_units_Z   2
loop_
 _symmetry_equiv_pos_site_id
 _symmetry_equiv_pos_as_xyz
  1  'x, y, z'
loop_
 _atom_site_type_symbol
 _atom_site_label
 _atom_site_symmetry_multiplicity
 _atom_site_fract_x
 _atom_site_fract_y
 _atom_site_fract_z
 _atom_site_occupancy
  C  C0  1  0.89484000  0.02897000  0.96053000  1.0
  C  C1  1  0.15956000  0.06893000  0.06026000  1.0
  C  C2  1  0.15570000  0.06511000  0.91657000  1.0
  C  C3  1  0.88534000  0.05210000  0.09250000  1.0
  C  C4  1  0.99418000  0.15921000  0.05653000  1.0
  C  C5  1  0.03744000  0.91508000  0.95907000  1.0
  C  C6  1  0.05040000  0.91327000  0.10246000  1.0
  C  C7  1  0.54454000  0.69314000  0.43273000  1.0
  C  C8  1  0.40494000  0.53849000  0.45569000  1.0
  C  C9  1  0.65312000  0.53560000  0.56070000  1.0
  C  C10  1  0.67172000  0.55879000  0.41981000  1.0
  C  C11  1  0.37580000  0.55969000  0.58874000  1.0
  C  C12  1  0.51284000  0.65487000  0.55772000  1.0
  C  C13  1  0.50530000  0.42187000  0.45223000  1.0
  C  C14  1  0.52014000  0.39302000  0.59318000  1.0
  C  C15  1  0.98746000  0.65224000  0.21086000  1.0
  C  C16  1  0.16470000  0.58937000  0.30699000  1.0
  C  C17  1  0.11750000  0.56135000  0.29435000  1.0
  C  C18  1  0.08930000  0.57993000  0.27357000  1.0
  C  C19  1  0.10788000  0.62838000  0.26630000  1.0
  C  C20  1  0.15540000  0.65602000  0.27876000  1.0
  C  C21  1  0.18322000  0.63640000  0.29910000  1.0
  C  C22  1  0.94282000  0.42037000  0.28135000  1.0
  C  C23  1  0.98158000  0.44517000  0.26937000  1.0
  C  C24  1  0.99076000  0.50114000  0.27342000  1.0
  C  C25  1  0.96140000  0.53183000  0.28983000  1.0
  C  C26  1  0.91940000  0.50768000  0.30024000  1.0
  C  C27  1  0.91228000  0.45193000  0.29680000  1.0
  C  C28  1  0.14270000  0.41549000  0.23747000  1.0
  C  C29  1  0.11186000  0.38470000  0.21794000  1.0
  C  C30  1  0.06060000  0.40166000  0.20735000  1.0
  C  C31  1  0.03980000  0.45082000  0.21642000  1.0
  C  C32  1  0.06954000  0.48169000  0.23660000  1.0
  C  C33  1  0.12190000  0.46427000  0.24658000  1.0
  C  C34  1  0.93448000  0.66649000  0.21643000  1.0
  C  C35  1  0.90664000  0.63783000  0.23142000  1.0
  C  C36  1  0.93354000  0.59441000  0.24127000  1.0
  C  C37  1  0.98714000  0.57931000  0.23551000  1.0
  C  C38  1  0.01138000  0.60597000  0.21868000  1.0
  C  C39  1  0.50110000  0.95328000  0.31808000  1.0
  C  C40  1  0.64376000  0.98582000  0.21628000  1.0
  C  C41  1  0.60412000  0.01529000  0.22781000  1.0
  C  C42  1  0.58360000  0.99770000  0.24789000  1.0
  C  C43  1  0.60232000  0.94890000  0.25603000  1.0
  C  C44  1  0.64150000  0.91867000  0.24412000  1.0
  C  C45  1  0.66154000  0.93745000  0.22424000  1.0
  C  C46  1  0.42656000  0.15536000  0.23882000  1.0
  C  C47  1  0.46932000  0.13080000  0.25253000  1.0
  C  C48  1  0.48542000  0.07824000  0.24511000  1.0
  C  C49  1  0.45780000  0.05043000  0.22370000  1.0
  C  C50  1  0.41376000  0.07429000  0.21047000  1.0
  C  C51  1  0.39902000  0.12645000  0.21794000  1.0
  C  C52  1  0.65876000  0.16400000  0.28564000  1.0
  C  C53  1  0.63520000  0.19587000  0.30359000  1.0
  C  C54  1  0.58644000  0.17924000  0.31202000  1.0
  C  C55  1  0.56186000  0.12906000  0.30276000  1.0
  C  C56  1  0.58318000  0.09802000  0.28374000  1.0
  C  C57  1  0.63282000  0.11497000  0.27581000  1.0
  C  C58  1  0.44620000  0.93537000  0.31007000  1.0
  C  C59  1  0.41780000  0.94965000  0.28853000  1.0
  C  C60  1  0.44490000  0.98376000  0.27527000  1.0
  C  C61  1  0.49964000  0.00342000  0.28366000  1.0
  C  C62  1  0.52758000  0.98784000  0.30504000  1.0
  C  C63  1  0.12934000  0.48484000  0.70975000  1.0
  C  C64  1  0.09326000  0.51401000  0.72349000  1.0
  C  C65  1  0.07638000  0.49447000  0.74393000  1.0
  C  C66  1  0.09548000  0.44435000  0.75034000  1.0
  C  C67  1  0.13054000  0.41383000  0.73609000  1.0
  C  C68  1  0.14694000  0.43490000  0.71591000  1.0
  C  C69  1  0.92112000  0.65139000  0.73870000  1.0
  C  C70  1  0.96628000  0.62744000  0.75119000  1.0
  C  C71  1  0.97878000  0.57346000  0.74455000  1.0
  C  C72  1  0.94604000  0.54417000  0.72481000  1.0
  C  C73  1  0.89934000  0.56731000  0.71307000  1.0
  C  C74  1  0.88766000  0.62065000  0.71994000  1.0
  C  C75  1  0.16148000  0.65350000  0.78420000  1.0
  C  C76  1  0.14150000  0.68503000  0.80323000  1.0
  C  C77  1  0.09008000  0.67330000  0.81091000  1.0
  C  C78  1  0.06114000  0.62556000  0.80051000  1.0
  C  C79  1  0.08104000  0.59286000  0.78153000  1.0
  C  C80  1  0.13170000  0.60695000  0.77363000  1.0
  C  C81  1  0.94842000  0.42762000  0.80960000  1.0
  C  C82  1  0.91820000  0.44197000  0.78848000  1.0
  C  C83  1  0.94362000  0.47667000  0.77495000  1.0
  C  C84  1  0.99856000  0.49692000  0.78253000  1.0
  C  C85  1  0.02836000  0.48132000  0.80361000  1.0
  C  C86  1  0.48538000  0.14455000  0.70998000  1.0
  C  C87  1  0.66354000  0.08540000  0.80687000  1.0
  C  C88  1  0.61536000  0.05749000  0.79484000  1.0
  C  C89  1  0.58540000  0.07617000  0.77448000  1.0
  C  C90  1  0.60234000  0.12511000  0.76714000  1.0
  C  C91  1  0.64928000  0.15386000  0.77947000  1.0
  C  C92  1  0.67860000  0.13440000  0.79952000  1.0
  C  C93  1  0.44796000  0.90380000  0.77758000  1.0
  C  C94  1  0.48398000  0.93342000  0.76612000  1.0
  C  C95  1  0.49032000  0.98949000  0.77204000  1.0
  C  C96  1  0.45932000  0.01534000  0.78926000  1.0
  C  C97  1  0.41956000  0.98635000  0.79909000  1.0
  C  C98  1  0.41740000  0.93049000  0.79447000  1.0
  C  C99  1  0.65260000  0.92204000  0.73620000  1.0
  C  C100  1  0.62466000  0.89062000  0.71621000  1.0
  C  C101  1  0.57124000  0.90317000  0.70613000  1.0
  C  C102  1  0.54594000  0.94946000  0.71570000  1.0
  C  C103  1  0.57306000  0.98114000  0.73627000  1.0
  C  C104  1  0.62714000  0.96751000  0.74608000  1.0
  C  C105  1  0.43580000  0.16366000  0.71774000  1.0
  C  C106  1  0.41066000  0.13966000  0.73499000  1.0
  C  C107  1  0.43536000  0.09464000  0.74424000  1.0
  C  C108  1  0.48554000  0.07461000  0.73640000  1.0
  C  C109  1  0.50808000  0.09800000  0.71812000  1.0
  C  C110  1  0.40668000  0.20959000  0.24650000  1.0
  C  C111  1  0.39230000  0.22290000  0.26987000  1.0
  C  C112  1  0.36042000  0.26846000  0.27517000  1.0
  C  C113  1  0.34076000  0.29915000  0.25645000  1.0
  C  C114  1  0.39348000  0.24501000  0.22916000  1.0
  C  C115  1  0.36060000  0.28899000  0.23401000  1.0
  C  C116  1  0.29276000  0.33524000  0.25824000  1.0
  C  C117  1  0.29552000  0.38706000  0.25121000  1.0
  C  C118  1  0.38940000  0.29144000  0.31538000  1.0
  C  C119  1  0.24058000  0.31407000  0.26200000  1.0
  C  C120  1  0.24692000  0.41594000  0.24651000  1.0
  C  C121  1  0.19236000  0.34379000  0.25774000  1.0
  C  C122  1  0.19480000  0.39341000  0.24876000  1.0
  C  C123  1  0.21700000  0.22717000  0.24838000  1.0
  C  C124  1  0.92632000  0.36311000  0.27542000  1.0
  C  C125  1  0.90214000  0.34401000  0.25192000  1.0
  C  C126  1  0.86788000  0.29710000  0.24771000  1.0
  C  C127  1  0.85644000  0.27120000  0.26763000  1.0
  C  C128  1  0.92164000  0.33188000  0.29424000  1.0
  C  C129  1  0.88694000  0.28632000  0.29038000  1.0
  C  C130  1  0.80502000  0.23777000  0.26660000  1.0
  C  C131  1  0.80778000  0.18671000  0.27450000  1.0
  C  C132  1  0.87530000  0.27353000  0.20748000  1.0
  C  C133  1  0.75260000  0.26149000  0.26243000  1.0
  C  C134  1  0.75942000  0.16047000  0.27909000  1.0
  C  C135  1  0.70442000  0.23462000  0.26678000  1.0
  C  C136  1  0.70780000  0.18526000  0.27610000  1.0
  C  C137  1  0.74384000  0.34999000  0.27457000  1.0
  C  C138  1  0.85298000  0.65926000  0.23843000  1.0
  C  C139  1  0.84792000  0.67778000  0.26260000  1.0
  C  C140  1  0.80426000  0.71182000  0.26841000  1.0
  C  C141  1  0.76588000  0.72864000  0.24977000  1.0
  C  C142  1  0.81142000  0.67201000  0.22032000  1.0
  C  C143  1  0.76872000  0.70632000  0.22588000  1.0
  C  C144  1  0.72798000  0.77441000  0.25415000  1.0
  C  C145  1  0.75130000  0.82409000  0.26501000  1.0
  C  C146  1  0.77864000  0.69401000  0.30418000  1.0
  C  C147  1  0.67138000  0.77151000  0.24380000  1.0
  C  C148  1  0.72076000  0.87078000  0.26398000  1.0
  C  C149  1  0.64040000  0.81911000  0.24348000  1.0
  C  C150  1  0.66580000  0.86900000  0.25243000  1.0
  C  C151  1  0.61514000  0.72209000  0.21224000  1.0
  C  C152  1  0.17982000  0.70325000  0.27000000  1.0
  C  C153  1  0.15278000  0.75227000  0.27092000  1.0
  C  C154  1  0.18150000  0.79956000  0.26760000  1.0
  C  C155  1  0.23818000  0.79747000  0.26385000  1.0
  C  C156  1  0.23446000  0.70103000  0.26415000  1.0
  C  C157  1  0.26330000  0.74754000  0.26112000  1.0
  C  C158  1  0.27440000  0.84659000  0.26657000  1.0
  C  C159  1  0.27934000  0.87982000  0.28857000  1.0
  C  C160  1  0.11400000  0.85162000  0.25118000  1.0
  C  C161  1  0.31146000  0.85446000  0.24967000  1.0
  C  C162  1  0.32324000  0.91719000  0.29477000  1.0
  C  C163  1  0.35510000  0.89366000  0.25595000  1.0
  C  C164  1  0.36320000  0.92252000  0.27907000  1.0
  C  C165  1  0.35268000  0.80481000  0.21952000  1.0
  C  C166  1  0.43220000  0.84703000  0.76940000  1.0
  C  C167  1  0.39978000  0.83421000  0.74688000  1.0
  C  C168  1  0.36274000  0.78958000  0.74289000  1.0
  C  C169  1  0.35740000  0.75847000  0.76191000  1.0
  C  C170  1  0.43306000  0.81077000  0.78666000  1.0
  C  C171  1  0.39598000  0.76677000  0.78293000  1.0
  C  C172  1  0.30544000  0.72671000  0.76261000  1.0
  C  C173  1  0.30784000  0.67398000  0.76871000  1.0
  C  C174  1  0.35210000  0.75686000  0.70330000  1.0
  C  C175  1  0.25374000  0.75251000  0.76131000  1.0
  C  C176  1  0.26014000  0.64801000  0.77423000  1.0
  C  C177  1  0.20620000  0.72576000  0.76627000  1.0
  C  C178  1  0.20946000  0.67458000  0.77382000  1.0
  C  C179  1  0.25112000  0.83950000  0.77717000  1.0
  C  C180  1  0.15508000  0.36210000  0.74243000  1.0
  C  C181  1  0.18160000  0.35690000  0.76577000  1.0
  C  C182  1  0.21804000  0.31381000  0.77005000  1.0
  C  C183  1  0.22622000  0.27524000  0.75048000  1.0
  C  C184  1  0.15986000  0.32058000  0.72395000  1.0
  C  C185  1  0.19486000  0.27799000  0.72789000  1.0
  C  C186  1  0.27290000  0.23651000  0.75205000  1.0
  C  C187  1  0.26356000  0.18241000  0.74249000  1.0
  C  C188  1  0.25936000  0.35457000  0.80770000  1.0
  C  C189  1  0.32854000  0.25532000  0.75917000  1.0
  C  C190  1  0.30838000  0.14861000  0.73891000  1.0
  C  C191  1  0.37298000  0.22072000  0.75622000  1.0
  C  C192  1  0.36354000  0.16806000  0.74503000  1.0
  C  C193  1  0.35366000  0.33661000  0.74936000  1.0
  C  C194  1  0.67304000  0.20110000  0.77045000  1.0
  C  C195  1  0.64776000  0.25092000  0.77288000  1.0
  C  C196  1  0.67708000  0.29773000  0.76966000  1.0
  C  C197  1  0.73288000  0.29472000  0.76453000  1.0
  C  C198  1  0.72638000  0.19797000  0.76314000  1.0
  C  C199  1  0.75594000  0.24420000  0.76021000  1.0
  C  C200  1  0.77074000  0.34283000  0.76773000  1.0
  C  C201  1  0.77924000  0.37361000  0.79038000  1.0
  C  C202  1  0.63078000  0.36261000  0.75136000  1.0
  C  C203  1  0.80488000  0.35301000  0.75004000  1.0
  C  C204  1  0.82450000  0.40968000  0.79634000  1.0
  C  C205  1  0.85130000  0.38872000  0.75638000  1.0
  C  C206  1  0.86266000  0.41556000  0.77986000  1.0
  C  C207  1  0.78170000  0.35772000  0.70971000  1.0
  C  C208  1  0.90554000  0.70749000  0.74547000  1.0
  C  C209  1  0.89638000  0.72541000  0.76922000  1.0
  C  C210  1  0.86812000  0.77358000  0.77434000  1.0
  C  C211  1  0.84660000  0.80185000  0.75499000  1.0
  C  C212  1  0.89090000  0.74033000  0.72723000  1.0
  C  C213  1  0.86148000  0.78669000  0.73189000  1.0
  C  C214  1  0.80118000  0.84089000  0.75714000  1.0
  C  C215  1  0.80450000  0.89005000  0.74760000  1.0
  C  C216  1  0.90316000  0.79191000  0.81464000  1.0
  C  C217  1  0.74960000  0.82408000  0.76354000  1.0
  C  C218  1  0.75672000  0.92005000  0.74288000  1.0
  C  C219  1  0.70240000  0.85532000  0.75945000  1.0
  C  C220  1  0.70502000  0.90171000  0.74794000  1.0
  C  C221  1  0.72066000  0.73706000  0.75391000  1.0
  C  C222  1  0.02944000  0.17694000  0.10058000  1.0
  C  C223  1  0.03050000  0.20998000  0.12244000  1.0
  C  C224  1  0.00298000  0.34530000  0.14365000  1.0
  C  C225  1  0.01978000  0.38264000  0.16411000  1.0
  C  C226  1  0.02976000  0.36598000  0.18717000  1.0
  C  C227  1  0.96422000  0.40396000  0.11791000  1.0
  C  C228  1  0.84810000  0.05656000  0.11143000  1.0
  C  C229  1  0.79040000  0.06053000  0.10492000  1.0
  C  C230  1  0.75308000  0.05700000  0.12201000  1.0
  C  C231  1  0.77446000  0.05218000  0.14611000  1.0
  C  C232  1  0.86892000  0.05370000  0.13567000  1.0
  C  C233  1  0.83232000  0.05172000  0.15290000  1.0
  C  C234  1  0.73646000  0.03974000  0.16344000  1.0
  C  C235  1  0.70488000  0.99174000  0.15847000  1.0
  C  C236  1  0.67560000  0.02424000  0.09586000  1.0
  C  C237  1  0.73344000  0.07350000  0.18500000  1.0
  C  C238  1  0.67238000  0.97560000  0.17518000  1.0
  C  C239  1  0.70072000  0.05620000  0.20202000  1.0
  C  C240  1  0.67084000  0.00716000  0.19719000  1.0
  C  C241  1  0.74016000  0.16271000  0.20177000  1.0
  C  C242  1  0.05096000  0.88167000  0.12277000  1.0
  C  C243  1  0.09090000  0.89047000  0.14329000  1.0
  C  C244  1  0.09546000  0.85338000  0.16070000  1.0
  C  C245  1  0.06048000  0.80702000  0.15628000  1.0
  C  C246  1  0.01492000  0.83693000  0.11963000  1.0
  C  C247  1  0.01960000  0.80014000  0.13615000  1.0
  C  C248  1  0.06066000  0.76698000  0.17346000  1.0
  C  C249  1  0.04236000  0.78260000  0.19575000  1.0
  C  C250  1  0.14688000  0.91126000  0.19104000  1.0
  C  C251  1  0.06400000  0.71213000  0.16518000  1.0
  C  C252  1  0.02210000  0.74451000  0.20872000  1.0
  C  C253  1  0.04448000  0.67369000  0.17884000  1.0
  C  C254  1  0.01984000  0.69020000  0.19958000  1.0
  C  C255  1  0.05546000  0.65703000  0.12872000  1.0
  C  C256  1  0.19182000  0.06471000  0.08394000  1.0
  C  C257  1  0.23344000  0.10324000  0.09338000  1.0
  C  C258  1  0.27192000  0.09490000  0.11359000  1.0
  C  C259  1  0.26718000  0.04754000  0.12457000  1.0
  C  C260  1  0.18714000  0.01835000  0.09529000  1.0
  C  C261  1  0.22410000  0.01010000  0.11559000  1.0
  C  C262  1  0.30688000  0.03774000  0.14580000  1.0
  C  C263  1  0.28674000  0.03319000  0.16782000  1.0
  C  C264  1  0.34068000  0.15465000  0.10701000  1.0
  C  C265  1  0.36510000  0.03913000  0.14498000  1.0
  C  C266  1  0.32352000  0.03752000  0.18919000  1.0
  C  C267  1  0.40166000  0.04474000  0.16658000  1.0
  C  C268  1  0.38074000  0.04661000  0.18877000  1.0
  C  C269  1  0.38874000  0.98974000  0.11174000  1.0
  C  C270  1  0.03678000  0.88560000  0.93472000  1.0
  C  C271  1  0.02312000  0.90871000  0.91324000  1.0
  C  C272  1  0.02172000  0.87732000  0.89039000  1.0
  C  C273  1  0.03390000  0.82217000  0.88965000  1.0
  C  C274  1  0.05030000  0.83149000  0.93339000  1.0
  C  C275  1  0.04958000  0.80066000  0.91136000  1.0
  C  C276  1  0.03642000  0.78660000  0.86667000  1.0
  C  C277  1  0.06690000  0.80368000  0.84920000  1.0
  C  C278  1  0.02846000  0.94866000  0.86800000  1.0
  C  C279  1  0.01650000  0.73280000  0.86404000  1.0
  C  C280  1  0.08076000  0.76766000  0.83033000  1.0
  C  C281  1  0.03196000  0.69634000  0.84504000  1.0
  C  C282  1  0.06670000  0.71277000  0.82883000  1.0
  C  C283  1  0.99146000  0.66779000  0.88743000  1.0
  C  C284  1  0.18888000  0.06639000  0.89647000  1.0
  C  C285  1  0.16432000  0.06758000  0.87258000  1.0
  C  C286  1  0.19806000  0.06849000  0.85390000  1.0
  C  C287  1  0.25652000  0.06421000  0.85919000  1.0
  C  C288  1  0.24712000  0.06676000  0.90166000  1.0
  C  C289  1  0.28040000  0.06501000  0.88328000  1.0
  C  C290  1  0.29324000  0.05223000  0.84016000  1.0
  C  C291  1  0.34576000  0.07854000  0.84235000  1.0
  C  C292  1  0.15244000  0.12039000  0.82751000  1.0
  C  C293  1  0.28102000  0.00779000  0.82256000  1.0
  C  C294  1  0.38680000  0.05872000  0.82854000  1.0
  C  C295  1  0.32104000  0.99056000  0.80779000  1.0
  C  C296  1  0.37542000  0.01309000  0.81180000  1.0
  C  C297  1  0.23742000  0.93502000  0.83306000  1.0
  C  C298  1  0.01370000  0.22875000  0.91483000  1.0
  C  C299  1  0.06764000  0.23346000  0.90833000  1.0
  C  C300  1  0.08198000  0.27536000  0.89525000  1.0
  C  C301  1  0.04196000  0.31387000  0.88965000  1.0
  C  C302  1  0.97468000  0.26748000  0.90922000  1.0
  C  C303  1  0.98864000  0.30943000  0.89680000  1.0
  C  C304  1  0.05194000  0.35528000  0.87373000  1.0
  C  C305  1  0.06640000  0.33910000  0.85061000  1.0
  C  C306  1  0.15454000  0.23371000  0.87805000  1.0
  C  C307  1  0.03606000  0.40871000  0.87936000  1.0
  C  C308  1  0.05808000  0.37289000  0.83252000  1.0
  C  C309  1  0.02598000  0.44163000  0.86087000  1.0
  C  C310  1  0.03456000  0.42294000  0.83723000  1.0
  C  C311  1  0.07178000  0.43961000  0.91772000  1.0
  C  C312  1  0.86528000  0.02995000  0.93614000  1.0
  C  C313  1  0.88826000  0.00912000  0.91550000  1.0
  C  C314  1  0.85698000  0.00736000  0.89256000  1.0
  C  C315  1  0.80344000  0.02969000  0.89028000  1.0
  C  C316  1  0.81158000  0.05047000  0.93373000  1.0
  C  C317  1  0.78134000  0.05092000  0.91110000  1.0
  C  C318  1  0.77054000  0.03444000  0.86658000  1.0
  C  C319  1  0.71334000  0.02032000  0.86305000  1.0
  C  C320  1  0.86942000  0.92979000  0.86944000  1.0
  C  C321  1  0.79328000  0.06064000  0.84904000  1.0
  C  C322  1  0.67856000  0.03505000  0.84325000  1.0
  C  C323  1  0.75866000  0.07251000  0.82856000  1.0
  C  C324  1  0.70058000  0.06300000  0.82622000  1.0
  C  C325  1  0.85518000  0.12978000  0.86174000  1.0
  C  C326  1  0.50660000  0.67690000  0.58250000  1.0
  C  C327  1  0.54886000  0.67076000  0.60134000  1.0
  C  C328  1  0.55104000  0.70313000  0.62375000  1.0
  C  C329  1  0.50968000  0.74188000  0.62679000  1.0
  C  C330  1  0.46406000  0.71276000  0.58635000  1.0
  C  C331  1  0.46530000  0.74459000  0.60834000  1.0
  C  C332  1  0.51538000  0.78350000  0.64798000  1.0
  C  C333  1  0.51500000  0.83790000  0.64420000  1.0
  C  C334  1  0.61276000  0.65145000  0.64567000  1.0
  C  C335  1  0.52398000  0.76987000  0.67177000  1.0
  C  C336  1  0.52816000  0.87793000  0.66353000  1.0
  C  C337  1  0.53800000  0.81023000  0.69102000  1.0
  C  C338  1  0.54204000  0.86414000  0.68692000  1.0
  C  C339  1  0.47674000  0.70381000  0.68575000  1.0
  C  C340  1  0.33712000  0.56170000  0.60713000  1.0
  C  C341  1  0.35656000  0.55578000  0.63128000  1.0
  C  C342  1  0.31890000  0.55320000  0.64835000  1.0
  C  C343  1  0.26116000  0.55415000  0.64071000  1.0
  C  C344  1  0.27972000  0.56654000  0.60027000  1.0
  C  C345  1  0.24208000  0.56232000  0.61684000  1.0
  C  C346  1  0.22062000  0.54081000  0.65685000  1.0
  C  C347  1  0.21768000  0.57287000  0.67875000  1.0
  C  C348  1  0.37368000  0.58456000  0.68356000  1.0
  C  C349  1  0.18838000  0.49295000  0.65134000  1.0
  C  C350  1  0.18454000  0.55657000  0.69541000  1.0
  C  C351  1  0.15464000  0.47731000  0.66796000  1.0
  C  C352  1  0.15410000  0.50789000  0.69038000  1.0
  C  C353  1  0.22662000  0.41893000  0.63381000  1.0
  C  C354  1  0.53080000  0.35640000  0.61167000  1.0
  C  C355  1  0.57112000  0.36840000  0.63188000  1.0
  C  C356  1  0.58094000  0.33192000  0.64932000  1.0
  C  C357  1  0.55062000  0.28265000  0.64552000  1.0
  C  C358  1  0.50150000  0.30737000  0.60829000  1.0
  C  C359  1  0.51112000  0.27113000  0.62501000  1.0
  C  C360  1  0.55202000  0.24610000  0.66441000  1.0
  C  C361  1  0.53928000  0.26692000  0.68720000  1.0
  C  C362  1  0.62412000  0.39448000  0.67991000  1.0
  C  C363  1  0.55278000  0.19009000  0.65821000  1.0
  C  C364  1  0.52164000  0.23311000  0.70275000  1.0
  C  C365  1  0.53540000  0.15606000  0.67441000  1.0
  C  C366  1  0.51602000  0.17786000  0.69576000  1.0
  C  C367  1  0.53978000  0.12630000  0.62442000  1.0
  C  C368  1  0.67778000  0.53703000  0.58598000  1.0
  C  C369  1  0.71808000  0.57680000  0.59543000  1.0
  C  C370  1  0.75306000  0.57206000  0.61705000  1.0
  C  C371  1  0.74584000  0.52738000  0.62950000  1.0
  C  C372  1  0.66946000  0.49400000  0.59903000  1.0
  C  C373  1  0.70296000  0.48946000  0.62083000  1.0
  C  C374  1  0.78492000  0.52008000  0.65120000  1.0
  C  C375  1  0.76606000  0.52653000  0.67387000  1.0
  C  C376  1  0.82556000  0.62720000  0.61021000  1.0
  C  C377  1  0.84260000  0.51527000  0.64970000  1.0
  C  C378  1  0.80436000  0.53537000  0.69474000  1.0
  C  C379  1  0.88080000  0.52506000  0.67070000  1.0
  C  C380  1  0.86184000  0.53790000  0.69311000  1.0
  C  C381  1  0.86084000  0.45366000  0.61933000  1.0
  C  C382  1  0.50094000  0.39902000  0.42673000  1.0
  C  C383  1  0.45834000  0.36120000  0.41733000  1.0
  C  C384  1  0.46070000  0.32924000  0.39519000  1.0
  C  C385  1  0.50852000  0.33312000  0.38344000  1.0
  C  C386  1  0.54448000  0.40717000  0.41321000  1.0
  C  C387  1  0.54852000  0.37416000  0.39186000  1.0
  C  C388  1  0.52040000  0.29184000  0.36385000  1.0
  C  C389  1  0.53410000  0.30756000  0.34212000  1.0
  C  C390  1  0.36652000  0.31232000  0.38419000  1.0
  C  C391  1  0.52502000  0.23751000  0.36788000  1.0
  C  C392  1  0.55346000  0.27045000  0.32494000  1.0
  C  C393  1  0.54322000  0.20012000  0.35021000  1.0
  C  C394  1  0.55958000  0.21669000  0.32909000  1.0
  C  C395  1  0.56200000  0.21857000  0.40505000  1.0
  C  C396  1  0.70436000  0.57066000  0.40063000  1.0
  C  C397  1  0.67946000  0.58899000  0.37926000  1.0
  C  C398  1  0.71216000  0.59917000  0.36108000  1.0
  C  C399  1  0.76926000  0.58682000  0.36389000  1.0
  C  C400  1  0.76206000  0.56393000  0.40411000  1.0
  C  C401  1  0.79400000  0.57130000  0.38588000  1.0
  C  C402  1  0.80224000  0.58065000  0.34335000  1.0
  C  C403  1  0.85764000  0.60077000  0.34661000  1.0
  C  C404  1  0.66874000  0.66873000  0.34443000  1.0
  C  C405  1  0.78394000  0.54346000  0.32310000  1.0
  C  C406  1  0.89578000  0.58000000  0.33153000  1.0
  C  C407  1  0.82180000  0.52504000  0.30743000  1.0
  C  C408  1  0.87860000  0.53961000  0.31273000  1.0
  C  C409  1  0.72916000  0.47147000  0.32699000  1.0
  C  C410  1  0.55760000  0.73298000  0.41689000  1.0
  C  C411  1  0.55106000  0.72003000  0.39176000  1.0
  C  C412  1  0.55572000  0.76001000  0.37658000  1.0
  C  C413  1  0.57072000  0.81297000  0.38674000  1.0
  C  C414  1  0.57378000  0.78527000  0.42686000  1.0
  C  C415  1  0.58086000  0.82472000  0.41194000  1.0
  C  C416  1  0.56550000  0.85748000  0.37157000  1.0
  C  C417  1  0.52708000  0.89713000  0.37681000  1.0
  C  C418  1  0.48646000  0.74625000  0.34504000  1.0
  C  C419  1  0.59250000  0.85727000  0.35068000  1.0
  C  C420  1  0.51038000  0.93261000  0.36029000  1.0
  C  C421  1  0.57416000  0.89313000  0.33377000  1.0
  C  C422  1  0.53176000  0.92909000  0.33823000  1.0
  C  C423  1  0.67158000  0.83273000  0.33222000  1.0
  C  C424  1  0.38262000  0.52957000  0.43001000  1.0
  C  C425  1  0.33882000  0.49192000  0.42249000  1.0
  C  C426  1  0.30658000  0.49215000  0.39995000  1.0
  C  C427  1  0.31950000  0.52960000  0.38458000  1.0
  C  C428  1  0.39810000  0.56372000  0.41387000  1.0
  C  C429  1  0.36654000  0.56390000  0.39130000  1.0
  C  C430  1  0.27778000  0.54124000  0.36451000  1.0
  C  C431  1  0.24996000  0.58957000  0.36732000  1.0
  C  C432  1  0.21690000  0.47437000  0.40559000  1.0
  C  C433  1  0.26386000  0.50461000  0.34363000  1.0
  C  C434  1  0.21032000  0.60328000  0.34916000  1.0
  C  C435  1  0.22408000  0.51967000  0.32495000  1.0
  C  C436  1  0.19792000  0.56911000  0.32769000  1.0
  C  C437  1  0.26224000  0.41436000  0.32830000  1.0
  C  C438  1  0.99740000  0.18300000  0.92695000  1.0
  C  C439  1  0.00332000  0.44628000  0.81698000  1.0
  C  C440  1  0.98850000  0.18336000  0.08121000  1.0
  C  C441  1  0.94566000  0.21944000  0.08472000  1.0
  C  C442  1  0.94518000  0.25105000  0.10684000  1.0
  C  C443  1  0.99002000  0.24910000  0.12534000  1.0
  C  C444  1  0.99784000  0.29045000  0.14663000  1.0
  C  C445  1  0.00448000  0.27469000  0.16994000  1.0
  C  C446  1  0.86282000  0.26411000  0.12153000  1.0
  C  C447  1  0.01994000  0.31211000  0.19002000  1.0
  H  H448  1  0.91598000  0.70211000  0.21000000  1.0
  H  H449  1  0.22058000  0.65729000  0.30853000  1.0
  H  H450  1  0.10430000  0.52411000  0.30016000  1.0
  H  H451  1  0.88020000  0.43313000  0.30514000  1.0
  H  H452  1  0.12800000  0.34688000  0.21092000  1.0
  H  H453  1  0.08782000  0.64429000  0.25060000  1.0
  H  H454  1  0.00292000  0.42058000  0.25661000  1.0
  H  H455  1  0.96722000  0.57496000  0.29260000  1.0
  H  H456  1  0.99900000  0.46288000  0.20893000  1.0
  H  H457  1  0.14542000  0.48645000  0.26221000  1.0
  H  H458  1  0.91278000  0.57386000  0.25358000  1.0
  H  H459  1  0.05250000  0.59526000  0.21426000  1.0
  H  H460  1  0.42700000  0.90675000  0.31980000  1.0
  H  H461  1  0.69294000  0.91516000  0.21547000  1.0
  H  H462  1  0.59118000  0.05313000  0.22173000  1.0
  H  H463  1  0.36458000  0.14418000  0.20757000  1.0
  H  H464  1  0.65470000  0.23434000  0.31082000  1.0
  H  H465  1  0.58806000  0.93504000  0.27179000  1.0
  H  H466  1  0.48916000  0.15313000  0.26890000  1.0
  H  H467  1  0.46874000  0.00981000  0.21793000  1.0
  H  H468  1  0.52294000  0.11702000  0.30854000  1.0
  H  H469  1  0.64986000  0.09218000  0.26112000  1.0
  H  H470  1  0.42362000  0.99364000  0.25831000  1.0
  H  H471  1  0.57056000  0.00063000  0.31104000  1.0
  H  H472  1  0.93034000  0.39907000  0.81971000  1.0
  H  H473  1  0.17648000  0.41363000  0.70561000  1.0
  H  H474  1  0.08028000  0.55297000  0.71879000  1.0
  H  H475  1  0.85162000  0.63830000  0.71063000  1.0
  H  H476  1  0.16608000  0.72005000  0.81156000  1.0
  H  H477  1  0.08374000  0.42926000  0.76632000  1.0
  H  H478  1  0.99092000  0.65142000  0.76591000  1.0
  H  H479  1  0.95500000  0.50280000  0.71940000  1.0
  H  H480  1  0.02074000  0.61603000  0.80555000  1.0
  H  H481  1  0.14676000  0.58395000  0.75847000  1.0
  H  H482  1  0.92050000  0.48681000  0.75846000  1.0
  H  H483  1  0.07134000  0.49464000  0.80912000  1.0
  H  H484  1  0.41792000  0.19936000  0.71112000  1.0
  H  H485  1  0.71450000  0.15738000  0.80905000  1.0
  H  H486  1  0.60408000  0.01895000  0.79994000  1.0
  H  H487  1  0.38822000  0.90758000  0.80271000  1.0
  H  H488  1  0.64402000  0.85472000  0.70893000  1.0
  H  H489  1  0.58162000  0.14022000  0.75131000  1.0
  H  H490  1  0.50552000  0.91235000  0.75240000  1.0
  H  H491  1  0.46294000  0.05837000  0.79351000  1.0
  H  H492  1  0.50362000  0.95791000  0.70855000  1.0
  H  H493  1  0.64870000  0.98973000  0.76214000  1.0
  H  H494  1  0.41686000  0.07792000  0.75825000  1.0
  H  H495  1  0.54740000  0.08444000  0.71258000  1.0
  H  H496  1  0.40200000  0.19589000  0.28342000  1.0
  H  H497  1  0.40500000  0.23634000  0.21113000  1.0
  H  H498  1  0.34680000  0.31245000  0.21946000  1.0
  H  H499  1  0.41938000  0.32052000  0.31001000  1.0
  H  H500  1  0.37454000  0.31057000  0.33205000  1.0
  H  H501  1  0.41064000  0.25432000  0.31992000  1.0
  H  H502  1  0.24492000  0.22744000  0.23406000  1.0
  H  H503  1  0.21720000  0.18619000  0.25384000  1.0
  H  H504  1  0.17332000  0.23519000  0.24112000  1.0
  H  H505  1  0.33492000  0.40372000  0.24782000  1.0
  H  H506  1  0.24962000  0.45402000  0.23943000  1.0
  H  H507  1  0.15228000  0.32623000  0.25974000  1.0
  H  H508  1  0.90496000  0.36848000  0.23744000  1.0
  H  H509  1  0.94010000  0.34587000  0.31249000  1.0
  H  H510  1  0.87916000  0.26648000  0.30582000  1.0
  H  H511  1  0.91296000  0.25107000  0.21356000  1.0
  H  H512  1  0.85320000  0.24924000  0.19130000  1.0
  H  H513  1  0.88730000  0.31240000  0.20173000  1.0
  H  H514  1  0.77982000  0.34930000  0.28900000  1.0
  H  H515  1  0.74422000  0.39030000  0.26839000  1.0
  H  H516  1  0.70376000  0.34485000  0.28193000  1.0
  H  H517  1  0.84774000  0.16844000  0.27833000  1.0
  H  H518  1  0.76284000  0.12244000  0.28638000  1.0
  H  H519  1  0.66458000  0.25380000  0.26410000  1.0
  H  H520  1  0.87992000  0.66910000  0.27684000  1.0
  H  H521  1  0.81440000  0.65862000  0.20153000  1.0
  H  H522  1  0.74032000  0.71856000  0.21113000  1.0
  H  H523  1  0.80466000  0.65797000  0.30494000  1.0
  H  H524  1  0.77642000  0.71128000  0.32307000  1.0
  H  H525  1  0.73522000  0.68284000  0.29581000  1.0
  H  H526  1  0.63488000  0.74669000  0.20014000  1.0
  H  H527  1  0.61124000  0.68062000  0.20303000  1.0
  H  H528  1  0.57236000  0.73547000  0.21454000  1.0
  H  H529  1  0.79482000  0.82759000  0.27258000  1.0
  H  H530  1  0.74154000  0.90893000  0.27062000  1.0
  H  H531  1  0.59760000  0.81800000  0.23500000  1.0
  H  H532  1  0.11086000  0.75444000  0.27579000  1.0
  H  H533  1  0.25608000  0.66357000  0.26340000  1.0
  H  H534  1  0.30678000  0.74483000  0.25843000  1.0
  H  H535  1  0.07724000  0.82600000  0.25284000  1.0
  H  H536  1  0.09996000  0.89346000  0.25177000  1.0
  H  H537  1  0.12918000  0.84143000  0.23334000  1.0
  H  H538  1  0.38146000  0.79059000  0.23445000  1.0
  H  H539  1  0.34236000  0.76979000  0.20575000  1.0
  H  H540  1  0.37352000  0.83549000  0.21072000  1.0
  H  H541  1  0.25188000  0.87386000  0.30192000  1.0
  H  H542  1  0.32822000  0.93941000  0.31261000  1.0
  H  H543  1  0.38490000  0.89928000  0.24355000  1.0
  H  H544  1  0.39808000  0.86210000  0.73347000  1.0
  H  H545  1  0.45748000  0.82007000  0.80421000  1.0
  H  H546  1  0.39302000  0.74316000  0.79771000  1.0
  H  H547  1  0.36872000  0.71762000  0.70777000  1.0
  H  H548  1  0.32108000  0.74861000  0.68694000  1.0
  H  H549  1  0.38556000  0.78319000  0.69868000  1.0
  H  H550  1  0.29096000  0.83683000  0.78924000  1.0
  H  H551  1  0.24874000  0.88104000  0.77242000  1.0
  H  H552  1  0.21470000  0.83250000  0.78683000  1.0
  H  H553  1  0.34724000  0.65386000  0.77029000  1.0
  H  H554  1  0.26352000  0.60854000  0.78012000  1.0
  H  H555  1  0.16708000  0.74648000  0.76560000  1.0
  H  H556  1  0.17586000  0.38790000  0.78014000  1.0
  H  H557  1  0.13898000  0.32272000  0.70586000  1.0
  H  H558  1  0.20036000  0.24899000  0.71266000  1.0
  H  H559  1  0.22292000  0.37041000  0.81619000  1.0
  H  H560  1  0.29172000  0.34619000  0.82253000  1.0
  H  H561  1  0.27800000  0.38487000  0.79784000  1.0
  H  H562  1  0.31924000  0.33408000  0.73408000  1.0
  H  H563  1  0.35996000  0.37946000  0.75648000  1.0
  H  H564  1  0.39334000  0.32285000  0.74293000  1.0
  H  H565  1  0.22146000  0.16708000  0.73649000  1.0
  H  H566  1  0.29996000  0.10849000  0.72987000  1.0
  H  H567  1  0.41536000  0.23649000  0.76093000  1.0
  H  H568  1  0.60666000  0.25395000  0.77860000  1.0
  H  H569  1  0.74672000  0.15989000  0.76128000  1.0
  H  H570  1  0.79864000  0.24065000  0.75640000  1.0
  H  H571  1  0.59876000  0.33333333  0.74136000  1.0
  H  H572  1  0.60986000  0.40119000  0.75468000  1.0
  H  H573  1  0.66442000  0.36945000  0.74016000  1.0
  H  H574  1  0.81846000  0.38169000  0.70655000  1.0
  H  H575  1  0.76662000  0.33288000  0.69248000  1.0
  H  H576  1  0.74702000  0.38424000  0.71417000  1.0
  H  H577  1  0.75346000  0.36673000  0.80422000  1.0
  H  H578  1  0.83186000  0.43031000  0.81448000  1.0
  H  H579  1  0.88062000  0.39224000  0.74354000  1.0
  H  H580  1  0.90718000  0.69992000  0.78329000  1.0
  H  H581  1  0.89836000  0.72786000  0.70884000  1.0
  H  H582  1  0.84618000  0.80820000  0.71685000  1.0
  H  H583  1  0.94020000  0.81036000  0.80845000  1.0
  H  H584  1  0.89458000  0.81728000  0.83115000  1.0
  H  H585  1  0.91250000  0.75146000  0.81993000  1.0
  H  H586  1  0.74566000  0.73281000  0.73848000  1.0
  H  H587  1  0.72036000  0.69774000  0.76102000  1.0
  H  H588  1  0.67662000  0.74604000  0.74765000  1.0
  H  H589  1  0.84328000  0.90321000  0.74209000  1.0
  H  H590  1  0.75940000  0.95530000  0.73363000  1.0
  H  H591  1  0.66250000  0.84075000  0.76334000  1.0
  H  H592  1  0.06290000  0.14937000  0.09825000  1.0
  H  H593  1  0.06486000  0.20718000  0.13656000  1.0
  H  H594  1  0.98722000  0.44219000  0.12477000  1.0
  H  H595  1  0.95046000  0.40515000  0.09840000  1.0
  H  H596  1  0.92568000  0.40031000  0.12669000  1.0
  H  H597  1  0.02946000  0.42374000  0.16188000  1.0
  H  H598  1  0.77434000  0.06531000  0.08645000  1.0
  H  H599  1  0.91326000  0.05097000  0.14117000  1.0
  H  H600  1  0.84906000  0.04712000  0.17135000  1.0
  H  H601  1  0.69480000  0.98428000  0.09642000  1.0
  H  H602  1  0.63018000  0.01780000  0.09594000  1.0
  H  H603  1  0.68120000  0.04082000  0.07880000  1.0
  H  H604  1  0.74604000  0.16002000  0.22151000  1.0
  H  H605  1  0.76042000  0.20079000  0.19889000  1.0
  H  H606  1  0.69516000  0.16505000  0.19474000  1.0
  H  H607  1  0.70710000  0.96557000  0.14196000  1.0
  H  H608  1  0.64990000  0.93749000  0.17129000  1.0
  H  H609  1  0.70064000  0.07915000  0.21950000  1.0
  H  H610  1  0.11970000  0.92429000  0.14489000  1.0
  H  H611  1  0.98358000  0.82962000  0.10396000  1.0
  H  H612  1  0.99088000  0.76592000  0.13317000  1.0
  H  H613  1  0.10784000  0.93375000  0.19249000  1.0
  H  H614  1  0.16822000  0.91101000  0.20969000  1.0
  H  H615  1  0.17572000  0.93185000  0.18094000  1.0
  H  H616  1  0.00960000  0.66213000  0.12818000  1.0
  H  H617  1  0.06512000  0.65830000  0.11001000  1.0
  H  H618  1  0.06778000  0.61729000  0.13407000  1.0
  H  H619  1  0.03878000  0.82456000  0.20204000  1.0
  H  H620  1  0.04526000  0.63144000  0.17270000  1.0
  H  H621  1  0.23590000  0.13946000  0.08482000  1.0
  H  H622  1  0.15694000  0.98706000  0.08773000  1.0
  H  H623  1  0.22016000  0.97360000  0.12385000  1.0
  H  H624  1  0.31716000  0.18725000  0.09895000  1.0
  H  H625  1  0.38094000  0.17235000  0.11636000  1.0
  H  H626  1  0.35098000  0.12325000  0.09272000  1.0
  H  H627  1  0.34642000  0.97079000  0.10675000  1.0
  H  H628  1  0.40694000  0.99203000  0.09471000  1.0
  H  H629  1  0.41634000  0.96434000  0.12287000  1.0
  H  H630  1  0.24230000  0.03108000  0.16877000  1.0
  H  H631  1  0.30670000  0.03940000  0.20624000  1.0
  H  H632  1  0.44570000  0.05223000  0.16605000  1.0
  H  H633  1  0.06250000  0.81259000  0.94957000  1.0
  H  H634  1  0.06244000  0.75964000  0.91140000  1.0
  H  H635  1  0.07352000  0.95131000  0.87542000  1.0
  H  H636  1  0.02600000  0.95618000  0.84883000  1.0
  H  H637  1  0.00470000  0.98041000  0.87728000  1.0
  H  H638  1  0.03702000  0.66108000  0.89136000  1.0
  H  H639  1  0.97374000  0.66576000  0.90458000  1.0
  H  H640  1  0.97066000  0.63548000  0.87409000  1.0
  H  H641  1  0.08296000  0.84443000  0.85079000  1.0
  H  H642  1  0.10432000  0.78308000  0.81735000  1.0
  H  H643  1  0.01828000  0.65497000  0.84337000  1.0
  H  H644  1  0.11934000  0.06783000  0.86844000  1.0
  H  H645  1  0.26724000  0.06597000  0.91997000  1.0
  H  H646  1  0.32500000  0.06162000  0.88789000  1.0
  H  H647  1  0.18446000  0.15288000  0.83374000  1.0
  H  H648  1  0.13946000  0.12259000  0.80801000  1.0
  H  H649  1  0.11474000  0.12694000  0.83681000  1.0
  H  H650  1  0.24952000  0.94723000  0.85271000  1.0
  H  H651  1  0.19682000  0.91292000  0.83101000  1.0
  H  H652  1  0.26806000  0.90693000  0.82583000  1.0
  H  H653  1  0.35622000  0.11254000  0.85587000  1.0
  H  H654  1  0.42798000  0.07753000  0.83181000  1.0
  H  H655  1  0.31012000  0.95716000  0.79401000  1.0
  H  H656  1  0.09838000  0.20457000  0.91343000  1.0
  H  H657  1  0.93276000  0.26485000  0.91397000  1.0
  H  H658  1  0.95672000  0.33753000  0.89198000  1.0
  H  H659  1  0.12148000  0.21142000  0.86496000  1.0
  H  H660  1  0.18844000  0.24358000  0.86757000  1.0
  H  H661  1  0.17250000  0.20815000  0.89179000  1.0
  H  H662  1  0.09684000  0.47135000  0.91134000  1.0
  H  H663  1  0.06050000  0.45576000  0.93561000  1.0
  H  H664  1  0.09714000  0.40369000  0.92045000  1.0
  H  H665  1  0.07842000  0.29842000  0.84576000  1.0
  H  H666  1  0.06398000  0.35755000  0.81423000  1.0
  H  H667  1  0.92958000  0.99301000  0.91721000  1.0
  H  H668  1  0.79304000  0.06717000  0.94941000  1.0
  H  H669  1  0.74074000  0.06887000  0.90988000  1.0
  H  H670  1  0.82390000  0.91972000  0.86685000  1.0
  H  H671  1  0.88630000  0.91263000  0.85287000  1.0
  H  H672  1  0.89120000  0.91065000  0.88480000  1.0
  H  H673  1  0.83900000  0.13673000  0.87950000  1.0
  H  H674  1  0.90030000  0.14081000  0.86497000  1.0
  H  H675  1  0.83492000  0.15650000  0.84893000  1.0
  H  H676  1  0.69496000  0.00036000  0.87637000  1.0
  H  H677  1  0.63420000  0.02674000  0.84198000  1.0
  H  H678  1  0.77734000  0.09158000  0.81506000  1.0
  H  H679  1  0.58272000  0.64455000  0.59773000  1.0
  H  H680  1  0.43126000  0.71815000  0.57187000  1.0
  H  H681  1  0.43304000  0.77356000  0.61050000  1.0
  H  H682  1  0.64018000  0.63464000  0.63242000  1.0
  H  H683  1  0.63736000  0.65371000  0.66382000  1.0
  H  H684  1  0.57618000  0.62418000  0.64591000  1.0
  H  H685  1  0.43852000  0.70941000  0.67309000  1.0
  H  H686  1  0.47774000  0.66092000  0.68849000  1.0
  H  H687  1  0.47508000  0.72676000  0.70376000  1.0
  H  H688  1  0.50788000  0.84934000  0.62607000  1.0
  H  H689  1  0.53156000  0.91917000  0.65997000  1.0
  H  H690  1  0.54908000  0.79909000  0.70905000  1.0
  H  H691  1  0.40066000  0.55117000  0.63666000  1.0
  H  H692  1  0.26350000  0.57132000  0.58179000  1.0
  H  H693  1  0.19780000  0.56355000  0.61084000  1.0
  H  H694  1  0.35736000  0.62494000  0.68078000  1.0
  H  H695  1  0.37778000  0.58180000  0.70326000  1.0
  H  H696  1  0.41596000  0.58011000  0.67795000  1.0
  H  H697  1  0.21020000  0.39150000  0.64564000  1.0
  H  H698  1  0.22996000  0.39515000  0.61622000  1.0
  H  H699  1  0.26944000  0.43401000  0.64141000  1.0
  H  H700  1  0.24256000  0.60954000  0.68331000  1.0
  H  H701  1  0.18522000  0.58044000  0.71274000  1.0
  H  H702  1  0.13096000  0.43984000  0.66383000  1.0
  H  H703  1  0.59524000  0.40545000  0.63368000  1.0
  H  H704  1  0.47012000  0.29721000  0.59284000  1.0
  H  H705  1  0.48578000  0.23464000  0.62230000  1.0
  H  H706  1  0.58190000  0.41109000  0.68104000  1.0
  H  H707  1  0.64488000  0.39586000  0.69871000  1.0
  H  H708  1  0.64982000  0.41976000  0.67031000  1.0
  H  H709  1  0.49418000  0.13083000  0.62508000  1.0
  H  H710  1  0.54592000  0.12263000  0.60508000  1.0
  H  H711  1  0.55464000  0.08894000  0.63159000  1.0
  H  H712  1  0.53800000  0.30968000  0.69218000  1.0
  H  H713  1  0.50894000  0.25058000  0.71967000  1.0
  H  H714  1  0.53394000  0.11309000  0.66995000  1.0
  H  H715  1  0.72298000  0.61071000  0.58556000  1.0
  H  H716  1  0.63988000  0.46204000  0.59159000  1.0
  H  H717  1  0.69732000  0.45502000  0.63030000  1.0
  H  H718  1  0.80452000  0.65802000  0.59992000  1.0
  H  H719  1  0.86498000  0.64564000  0.62009000  1.0
  H  H720  1  0.83738000  0.59269000  0.59779000  1.0
  H  H721  1  0.81740000  0.43683000  0.61616000  1.0
  H  H722  1  0.87760000  0.44836000  0.60175000  1.0
  H  H723  1  0.88776000  0.43091000  0.63198000  1.0
  H  H724  1  0.72192000  0.52966000  0.67532000  1.0
  H  H725  1  0.78906000  0.54533000  0.71196000  1.0
  H  H726  1  0.92500000  0.52729000  0.66919000  1.0
  H  H727  1  0.42490000  0.35459000  0.42787000  1.0
  H  H728  1  0.57816000  0.43555000  0.42020000  1.0
  H  H729  1  0.58510000  0.37827000  0.38283000  1.0
  H  H730  1  0.36558000  0.35128000  0.37648000  1.0
  H  H731  1  0.33768000  0.28440000  0.37163000  1.0
  H  H732  1  0.35024000  0.31632000  0.40190000  1.0
  H  H733  1  0.58402000  0.25829000  0.40911000  1.0
  H  H734  1  0.55122000  0.20699000  0.42241000  1.0
  H  H735  1  0.59004000  0.18764000  0.39790000  1.0
  H  H736  1  0.53124000  0.34900000  0.33871000  1.0
  H  H737  1  0.56480000  0.28406000  0.30855000  1.0
  H  H738  1  0.54740000  0.15877000  0.35363000  1.0
  H  H739  1  0.63494000  0.59496000  0.37661000  1.0
  H  H740  1  0.78238000  0.55027000  0.42054000  1.0
  H  H741  1  0.83770000  0.56159000  0.38850000  1.0
  H  H742  1  0.70200000  0.69641000  0.35466000  1.0
  H  H743  1  0.65634000  0.68444000  0.32693000  1.0
  H  H744  1  0.63116000  0.66900000  0.35396000  1.0
  H  H745  1  0.74622000  0.47239000  0.34640000  1.0
  H  H746  1  0.68524000  0.45674000  0.32511000  1.0
  H  H747  1  0.75182000  0.44249000  0.31558000  1.0
  H  H748  1  0.87254000  0.62910000  0.36213000  1.0
  H  H749  1  0.93928000  0.59252000  0.33568000  1.0
  H  H750  1  0.80748000  0.49569000  0.29219000  1.0
  H  H751  1  0.53914000  0.67965000  0.38381000  1.0
  H  H752  1  0.57978000  0.79607000  0.44624000  1.0
  H  H753  1  0.59166000  0.86519000  0.42008000  1.0
  H  H754  1  0.46794000  0.78541000  0.35038000  1.0
  H  H755  1  0.47814000  0.73849000  0.32507000  1.0
  H  H756  1  0.46558000  0.71331000  0.35249000  1.0
  H  H757  1  0.68806000  0.87440000  0.33779000  1.0
  H  H758  1  0.70752000  0.80606000  0.33467000  1.0
  H  H759  1  0.65460000  0.82661000  0.31277000  1.0
  H  H760  1  0.50640000  0.89791000  0.39286000  1.0
  H  H761  1  0.47734000  0.95990000  0.36386000  1.0
  H  H762  1  0.58906000  0.89035000  0.31631000  1.0
  H  H763  1  0.32754000  0.46431000  0.43466000  1.0
  H  H764  1  0.43134000  0.59332000  0.41940000  1.0
  H  H765  1  0.37638000  0.59345000  0.37977000  1.0
  H  H766  1  0.20564000  0.51611000  0.40265000  1.0
  H  H767  1  0.17974000  0.44848000  0.39841000  1.0
  H  H768  1  0.22602000  0.47046000  0.42521000  1.0
  H  H769  1  0.26110000  0.41578000  0.30856000  1.0
  H  H770  1  0.28300000  0.37691000  0.33256000  1.0
  H  H771  1  0.21944000  0.41184000  0.33354000  1.0
  H  H772  1  0.25948000  0.61718000  0.38362000  1.0
  H  H773  1  0.19068000  0.64164000  0.35150000  1.0
  H  H774  1  0.21558000  0.49479000  0.30782000  1.0
  H  H775  1  0.91314000  0.22427000  0.07004000  1.0
  H  H776  1  0.88030000  0.25715000  0.14019000  1.0
  H  H777  1  0.82854000  0.29260000  0.12318000  1.0
  H  H778  1  0.84420000  0.22641000  0.11117000  1.0
  H  H779  1  0.99986000  0.23295000  0.17253000  1.0
  H  H780  1  0.02750000  0.29844000  0.20772000  1.0
  H  H781  1  0.00492000  0.75781000  0.22521000  1.0
  H  H782  1  0.01262000  0.95038000  0.91439000  1.0
  H  H783  1  0.00714000  0.48000000  0.86460000  1.0
  Mn  Mn784  1  0.03504000  0.92725000  0.03179000  1.0
  Mn  Mn785  1  0.03392000  0.04415000  0.06546000  1.0
  Mn  Mn786  1  0.14116000  0.07616000  0.98725000  1.0
  Mn  Mn787  1  0.02200000  0.03822000  0.95215000  1.0
  Mn  Mn788  1  0.03146000  0.03921000  0.00886000  1.0
  Mn  Mn789  1  0.49562000  0.42191000  0.52439000  1.0
  Mn  Mn790  1  0.52422000  0.53276000  0.56276000  1.0
  Mn  Mn791  1  0.65128000  0.54700000  0.48888000  1.0
  Mn  Mn792  1  0.53210000  0.54313000  0.45200000  1.0
  Mn  Mn793  1  0.53116000  0.53407000  0.50725000  1.0
  N  N794  1  0.01604000  0.11154000  0.05009000  1.0
  N  N795  1  0.01290000  0.10787000  0.02659000  1.0
  N  N796  1  0.04552000  0.96869000  0.96577000  1.0
  N  N797  1  0.04886000  0.97289000  0.98952000  1.0
  N  N798  1  0.04038000  0.92711000  0.99700000  1.0
  N  N799  1  0.03452000  0.88880000  0.97881000  1.0
  N  N800  1  0.04114000  0.88974000  0.07955000  1.0
  N  N801  1  0.03894000  0.93030000  0.06684000  1.0
  N  N802  1  0.04784000  0.97577000  0.08062000  1.0
  N  N803  1  0.05400000  0.96744000  0.10366000  1.0
  N  N804  1  0.02934000  0.14058000  0.93063000  1.0
  N  N805  1  0.95050000  0.03169000  0.96713000  1.0
  N  N806  1  0.95610000  0.03324000  0.99062000  1.0
  N  N807  1  0.90752000  0.03140000  0.99886000  1.0
  N  N808  1  0.86788000  0.02882000  0.98023000  1.0
  N  N809  1  0.10918000  0.04458000  0.05245000  1.0
  N  N810  1  0.10424000  0.04498000  0.02889000  1.0
  N  N811  1  0.14556000  0.07064000  0.02247000  1.0
  N  N812  1  0.18338000  0.08482000  0.04134000  1.0
  N  N813  1  0.17732000  0.08157000  0.93953000  1.0
  N  N814  1  0.13686000  0.07138000  0.95197000  1.0
  N  N815  1  0.09398000  0.04780000  0.93802000  1.0
  N  N816  1  0.10306000  0.04429000  0.91514000  1.0
  N  N817  1  0.94156000  0.05103000  0.09644000  1.0
  N  N818  1  0.95608000  0.04360000  0.07442000  1.0
  N  N819  1  0.91184000  0.04062000  0.05791000  1.0
  N  N820  1  0.86656000  0.04553000  0.06871000  1.0
  N  N821  1  0.52586000  0.60445000  0.55023000  1.0
  N  N822  1  0.52794000  0.60396000  0.52711000  1.0
  N  N823  1  0.51684000  0.65126000  0.51994000  1.0
  N  N824  1  0.50778000  0.68454000  0.53898000  1.0
  N  N825  1  0.53412000  0.46743000  0.46205000  1.0
  N  N826  1  0.53366000  0.46677000  0.48552000  1.0
  N  N827  1  0.50570000  0.42539000  0.48993000  1.0
  N  N828  1  0.48788000  0.39471000  0.46971000  1.0
  N  N829  1  0.49860000  0.37595000  0.57023000  1.0
  N  N830  1  0.49756000  0.41962000  0.55945000  1.0
  N  N831  1  0.51928000  0.46041000  0.57441000  1.0
  N  N832  1  0.53348000  0.44603000  0.59621000  1.0
  N  N833  1  0.54292000  0.63979000  0.42655000  1.0
  N  N834  1  0.53000000  0.62044000  0.44611000  1.0
  N  N835  1  0.52426000  0.65937000  0.46339000  1.0
  N  N836  1  0.53288000  0.70578000  0.45547000  1.0
  N  N837  1  0.45848000  0.54921000  0.46499000  1.0
  N  N838  1  0.45932000  0.54814000  0.48820000  1.0
  N  N839  1  0.40906000  0.53800000  0.49369000  1.0
  N  N840  1  0.37358000  0.53255000  0.47356000  1.0
  N  N841  1  0.60030000  0.51940000  0.55145000  1.0
  N  N842  1  0.59996000  0.51992000  0.52803000  1.0
  N  N843  1  0.64764000  0.53660000  0.52306000  1.0
  N  N844  1  0.68352000  0.54623000  0.54289000  1.0
  N  N845  1  0.69460000  0.55992000  0.44301000  1.0
  N  N846  1  0.65204000  0.54874000  0.45412000  1.0
  N  N847  1  0.60624000  0.53969000  0.43901000  1.0
  N  N848  1  0.61616000  0.54721000  0.41698000  1.0
  N  N849  1  0.43016000  0.54743000  0.59252000  1.0
  N  N850  1  0.44670000  0.54708000  0.57097000  1.0
  N  N851  1  0.40534000  0.55855000  0.55482000  1.0
  N  N852  1  0.36000000  0.56651000  0.56543000  1.0
  N  N853  1  0.99062000  0.15064000  0.01815000  1.0
  N  N854  1  0.97874000  0.18404000  0.03667000  1.0
  N  N855  1  0.99812000  0.10918000  0.94114000  1.0
  N  N856  1  0.94960000  0.13098000  0.94392000  1.0
  N  N857  1  0.94772000  0.17745000  0.93506000  1.0
  O  O858  1  0.01012000  0.00140000  0.03432000  1.0
  O  O859  1  0.05910000  0.07267000  0.98343000  1.0
  O  O860  1  0.49522000  0.49997000  0.53022000  1.0
  O  O861  1  0.57166000  0.56309000  0.48437000  1.0
  O  O862  1  0.34274000  0.27980000  0.29766000  1.0
  O  O863  1  0.23628000  0.26329000  0.26891000  1.0
  O  O864  1  0.83852000  0.28082000  0.22516000  1.0
  O  O865  1  0.74858000  0.31167000  0.25461000  1.0
  O  O866  1  0.80256000  0.73289000  0.29210000  1.0
  O  O867  1  0.64764000  0.72141000  0.23493000  1.0
  O  O868  1  0.15656000  0.84861000  0.27055000  1.0
  O  O869  1  0.30246000  0.82416000  0.22715000  1.0
  O  O870  1  0.32504000  0.78218000  0.72209000  1.0
  O  O871  1  0.24962000  0.80450000  0.75563000  1.0
  O  O872  1  0.24472000  0.30615000  0.79286000  1.0
  O  O873  1  0.34000000  0.30825000  0.76820000  1.0
  O  O874  1  0.65256000  0.34656000  0.77384000  1.0
  O  O875  1  0.79630000  0.32331000  0.72754000  1.0
  O  O876  1  0.85516000  0.79029000  0.79736000  1.0
  O  O877  1  0.74454000  0.77571000  0.77267000  1.0
  O  O878  1  0.99942000  0.36003000  0.12043000  1.0
  O  O879  1  0.69582000  0.06095000  0.11608000  1.0
  O  O880  1  0.76652000  0.12017000  0.18942000  1.0
  O  O881  1  0.13626000  0.85775000  0.18073000  1.0
  O  O882  1  0.08680000  0.69831000  0.14384000  1.0
  O  O883  1  0.31150000  0.13383000  0.12431000  1.0
  O  O884  1  0.38646000  0.04203000  0.12348000  1.0
  O  O885  1  0.97996000  0.71843000  0.87967000  1.0
  O  O886  1  0.17406000  0.06938000  0.83026000  1.0
  O  O887  1  0.23062000  0.97983000  0.82007000  1.0
  O  O888  1  0.13546000  0.28197000  0.88919000  1.0
  O  O889  1  0.02218000  0.42666000  0.90195000  1.0
  O  O890  1  0.87968000  0.98552000  0.87242000  1.0
  O  O891  1  0.84918000  0.07558000  0.85195000  1.0
  O  O892  1  0.59710000  0.70375000  0.64134000  1.0
  O  O893  1  0.52528000  0.71680000  0.67595000  1.0
  O  O894  1  0.33720000  0.54288000  0.67174000  1.0
  O  O895  1  0.19014000  0.46119000  0.62971000  1.0
  O  O896  1  0.62194000  0.34083000  0.66922000  1.0
  O  O897  1  0.57168000  0.17097000  0.63650000  1.0
  O  O898  1  0.79232000  0.61164000  0.62733000  1.0
  O  O899  1  0.86240000  0.50871000  0.62757000  1.0
  O  O900  1  0.42008000  0.29020000  0.38606000  1.0
  O  O901  1  0.51218000  0.22083000  0.38920000  1.0
  O  O902  1  0.68798000  0.61637000  0.33970000  1.0
  O  O903  1  0.72978000  0.52290000  0.31925000  1.0
  O  O904  1  0.54470000  0.74736000  0.35182000  1.0
  O  O905  1  0.63142000  0.81785000  0.34660000  1.0
  O  O906  1  0.26162000  0.45680000  0.39309000  1.0
  O  O907  1  0.29416000  0.45795000  0.34140000  1.0
  O  O908  1  0.90308000  0.28703000  0.10938000  1.0
  O  O909  1  0.00412000  0.89768000  0.86877000  1.0
  Si  Si910  1  0.03362000  0.53590000  0.25421000  1.0
  Si  Si911  1  0.53822000  0.04365000  0.26505000  1.0
  Si  Si912  1  0.03410000  0.53899000  0.76334000  1.0
  Si  Si913  1  0.53234000  0.03036000  0.75449000  1.0
