# generated using pymatgen
data_CuH12C24(N5O4)3
_symmetry_space_group_name_H-M   'P 1'
_cell_length_a   52.06400000
_cell_length_b   55.89765819
_cell_length_c   55.89090000
_cell_angle_alpha   59.99600000
_cell_angle_beta   89.99900000
_cell_angle_gamma   90.00000000
_symmetry_Int_Tables_number   1
_chemical_formula_structural   CuH12C24(N5O4)3
_chemical_formula_sum   'Cu12 H144 C288 N180 O144'
_cell_volume   140859.25049158
_cell_formula_units_Z   12
loop_
 _symmetry_equiv_pos_site_id
 _symmetry_equiv_pos_as_xyz
  1  'x, y, z'
loop_
 _atom_site_type_symbol
 _atom_site_label
 _atom_site_symmetry_multiplicity
 _atom_site_fract_x
 _atom_site_fract_y
 _atom_site_fract_z
 _atom_site_occupancy
  Cu  Cu0  1  0.85480000  0.56686000  0.08769000  1.0
  Cu  Cu1  1  0.34303000  0.67396000  0.37534000  1.0
  Cu  Cu2  1  0.86708000  0.10734000  0.33739000  1.0
  Cu  Cu3  1  0.32578000  0.37501000  0.94856000  1.0
  Cu  Cu4  1  0.83574000  0.32965000  0.60862000  1.0
  Cu  Cu5  1  0.33091000  0.95107000  0.66269000  1.0
  Cu  Cu6  1  0.64574000  0.32495000  0.07542000  1.0
  Cu  Cu7  1  0.13966000  0.44500000  0.65312000  1.0
  Cu  Cu8  1  0.65332000  0.06256000  0.60405000  1.0
  Cu  Cu9  1  0.14758000  0.66401000  0.91039000  1.0
  Cu  Cu10  1  0.66296000  0.59919000  0.33134000  1.0
  Cu  Cu11  1  0.16895000  0.94107000  0.38636000  1.0
  H  H12  1  0.90507000  0.59705000  0.05195000  1.0
  H  H13  1  0.89890000  0.52914000  0.13159000  1.0
  H  H14  1  0.85104000  0.50761000  0.14388000  1.0
  H  H15  1  0.81748000  0.58334000  0.12306000  1.0
  H  H16  1  0.87337000  0.55651000  0.03853000  1.0
  H  H17  1  0.80974000  0.52570000  0.09072000  1.0
  H  H18  1  0.39678000  0.65881000  0.35811000  1.0
  H  H19  1  0.37176000  0.64502000  0.43493000  1.0
  H  H20  1  0.37484000  0.72729000  0.36657000  1.0
  H  H21  1  0.29838000  0.70511000  0.38965000  1.0
  H  H22  1  0.29240000  0.65315000  0.35824000  1.0
  H  H23  1  0.32151000  0.63028000  0.43638000  1.0
  H  H24  1  0.92498000  0.08419000  0.35613000  1.0
  H  H25  1  0.86564000  0.05614000  0.32621000  1.0
  H  H26  1  0.87542000  0.11378000  0.27688000  1.0
  H  H27  1  0.82386000  0.15301000  0.30329000  1.0
  H  H28  1  0.81780000  0.07068000  0.34220000  1.0
  H  H29  1  0.84138000  0.10148000  0.39301000  1.0
  H  H30  1  0.37720000  0.35213000  0.98511000  1.0
  H  H31  1  0.35927000  0.43129000  0.92122000  1.0
  H  H32  1  0.35954000  0.38694000  0.89504000  1.0
  H  H33  1  0.28005000  0.38361000  0.90615000  1.0
  H  H34  1  0.27479000  0.35993000  0.98626000  1.0
  H  H35  1  0.30899000  0.43628000  0.93443000  1.0
  H  H36  1  0.89041000  0.33784000  0.63085000  1.0
  H  H37  1  0.86563000  0.36422000  0.55041000  1.0
  H  H38  1  0.85986000  0.30613000  0.57087000  1.0
  H  H39  1  0.79052000  0.28809000  0.61395000  1.0
  H  H40  1  0.79131000  0.35458000  0.63055000  1.0
  H  H41  1  0.81534000  0.37877000  0.55036000  1.0
  H  H42  1  0.38482000  0.98354000  0.64941000  1.0
  H  H43  1  0.36101000  0.92118000  0.63408000  1.0
  H  H44  1  0.36240000  0.89529000  0.70290000  1.0
  H  H45  1  0.28425000  0.91304000  0.70060000  1.0
  H  H46  1  0.27987000  0.98893000  0.64151000  1.0
  H  H47  1  0.31382000  0.93950000  0.61382000  1.0
  H  H48  1  0.59305000  0.33173000  0.04273000  1.0
  H  H49  1  0.60824000  0.34475000  0.10861000  1.0
  H  H50  1  0.62598000  0.29537000  0.13907000  1.0
  H  H51  1  0.69836000  0.29593000  0.10668000  1.0
  H  H52  1  0.65055000  0.37821000  0.01455000  1.0
  H  H53  1  0.69045000  0.35815000  0.08699000  1.0
  H  H54  1  0.08086000  0.43860000  0.63870000  1.0
  H  H55  1  0.14494000  0.38933000  0.64955000  1.0
  H  H56  1  0.12171000  0.39348000  0.71190000  1.0
  H  H57  1  0.18456000  0.44648000  0.69193000  1.0
  H  H58  1  0.19408000  0.41811000  0.65191000  1.0
  H  H59  1  0.16332000  0.49551000  0.59712000  1.0
  H  H60  1  0.59845000  0.03291000  0.62521000  1.0
  H  H61  1  0.62492000  0.08501000  0.54507000  1.0
  H  H62  1  0.62733000  0.12338000  0.56898000  1.0
  H  H63  1  0.69742000  0.09898000  0.61062000  1.0
  H  H64  1  0.69136000  0.01011000  0.62481000  1.0
  H  H65  1  0.68333000  0.08047000  0.54712000  1.0
  H  H66  1  0.09300000  0.63940000  0.93968000  1.0
  H  H67  1  0.15412000  0.67012000  0.96460000  1.0
  H  H68  1  0.13566000  0.72168000  0.90855000  1.0
  H  H69  1  0.18895000  0.70318000  0.86435000  1.0
  H  H70  1  0.20486000  0.65962000  0.93453000  1.0
  H  H71  1  0.16540000  0.60650000  0.91516000  1.0
  H  H72  1  0.60946000  0.62413000  0.33832000  1.0
  H  H73  1  0.63181000  0.54231000  0.36843000  1.0
  H  H74  1  0.63280000  0.56891000  0.30303000  1.0
  H  H75  1  0.70963000  0.59239000  0.29752000  1.0
  H  H76  1  0.71171000  0.62156000  0.35051000  1.0
  H  H77  1  0.68116000  0.54218000  0.38406000  1.0
  H  H78  1  0.11702000  0.97594000  0.36351000  1.0
  H  H79  1  0.13616000  0.91480000  0.44359000  1.0
  H  H80  1  0.13448000  0.89294000  0.38613000  1.0
  H  H81  1  0.21373000  0.89787000  0.39431000  1.0
  H  H82  1  0.22854000  0.95770000  0.37789000  1.0
  H  H83  1  0.17963000  0.94179000  0.44343000  1.0
  H  H84  1  0.80070000  0.50522000  0.21118000  1.0
  H  H85  1  0.79090000  0.59056000  0.14969000  1.0
  H  H86  1  0.74051000  0.57645000  0.28119000  1.0
  H  H87  1  0.68022000  0.55715000  0.24126000  1.0
  H  H88  1  0.23707000  0.85597000  0.41651000  1.0
  H  H89  1  0.18376000  0.83271000  0.37326000  1.0
  H  H90  1  0.27803000  0.72386000  0.41472000  1.0
  H  H91  1  0.32180000  0.79548000  0.35956000  1.0
  H  H92  1  0.68357000  0.23613000  0.20153000  1.0
  H  H93  1  0.73437000  0.28289000  0.13320000  1.0
  H  H94  1  0.80915000  0.15981000  0.21811000  1.0
  H  H95  1  0.80643000  0.19544000  0.27049000  1.0
  H  H96  1  0.25305000  0.40426000  0.86895000  1.0
  H  H97  1  0.31231000  0.38750000  0.82604000  1.0
  H  H98  1  0.20526000  0.45131000  0.72533000  1.0
  H  H99  1  0.18161000  0.36777000  0.78001000  1.0
  H  H100  1  0.71978000  0.12614000  0.62224000  1.0
  H  H101  1  0.68002000  0.19415000  0.55578000  1.0
  H  H102  1  0.80594000  0.25096000  0.55578000  1.0
  H  H103  1  0.76683000  0.25076000  0.62345000  1.0
  H  H104  1  0.19190000  0.79091000  0.85675000  1.0
  H  H105  1  0.20739000  0.73654000  0.82505000  1.0
  H  H106  1  0.31558000  0.83147000  0.77590000  1.0
  H  H107  1  0.25469000  0.87818000  0.72044000  1.0
  H  H108  1  0.77533000  0.50813000  0.07968000  1.0
  H  H109  1  0.82882000  0.48920000  0.03312000  1.0
  H  H110  1  0.69993000  0.44723000  0.01055000  1.0
  H  H111  1  0.72853000  0.37894000  0.08571000  1.0
  H  H112  1  0.24944000  0.58291000  0.42910000  1.0
  H  H113  1  0.29824000  0.60696000  0.47535000  1.0
  H  H114  1  0.24198000  0.46931000  0.57475000  1.0
  H  H115  1  0.18714000  0.53065000  0.56560000  1.0
  H  H116  1  0.75968000  0.06091000  0.40727000  1.0
  H  H117  1  0.82625000  0.08323000  0.43697000  1.0
  H  H118  1  0.73745000  0.00865000  0.55646000  1.0
  H  H119  1  0.71340000  0.09342000  0.51383000  1.0
  H  H120  1  0.24371000  0.57661000  0.96258000  1.0
  H  H121  1  0.18690000  0.57536000  0.90765000  1.0
  H  H122  1  0.23798000  0.43223000  0.98903000  1.0
  H  H123  1  0.28889000  0.47665000  0.92026000  1.0
  H  H124  1  0.75597000  0.43471000  0.56346000  1.0
  H  H125  1  0.79088000  0.40583000  0.51303000  1.0
  H  H126  1  0.75876000  0.55419000  0.42040000  1.0
  H  H127  1  0.69055000  0.50819000  0.42699000  1.0
  H  H128  1  0.24789000  0.99963000  0.56079000  1.0
  H  H129  1  0.29017000  0.92433000  0.58938000  1.0
  H  H130  1  0.26195000  0.97730000  0.44124000  1.0
  H  H131  1  0.19550000  0.93104000  0.48567000  1.0
  H  H132  1  0.97849000  0.54442000  0.09228000  1.0
  H  H133  1  0.94269000  0.62237000  0.03873000  1.0
  H  H134  1  0.05994000  0.61636000  0.96667000  1.0
  H  H135  1  0.08399000  0.64645000  0.02031000  1.0
  H  H136  1  0.57320000  0.63701000  0.34953000  1.0
  H  H137  1  0.54959000  0.55210000  0.38894000  1.0
  H  H138  1  0.43037000  0.63587000  0.35371000  1.0
  H  H139  1  0.45615000  0.62501000  0.43144000  1.0
  H  H140  1  0.05866000  0.95605000  0.43596000  1.0
  H  H141  1  0.07687000  0.99033000  0.35006000  1.0
  H  H142  1  0.96645000  0.07169000  0.35606000  1.0
  H  H143  1  0.93547000  0.99976000  0.35774000  1.0
  H  H144  1  0.43983000  0.42314000  0.95526000  1.0
  H  H145  1  0.41265000  0.34099000  0.01040000  1.0
  H  H146  1  0.52634000  0.36426000  0.07720000  1.0
  H  H147  1  0.55535000  0.33789000  0.02220000  1.0
  H  H148  1  0.93241000  0.33633000  0.64163000  1.0
  H  H149  1  0.94360000  0.39759000  0.55651000  1.0
  H  H150  1  0.07288000  0.36379000  0.62214000  1.0
  H  H151  1  0.04052000  0.42528000  0.63777000  1.0
  H  H152  1  0.56205000  0.00911000  0.63540000  1.0
  H  H153  1  0.54150000  0.05901000  0.54990000  1.0
  H  H154  1  0.41950000  0.00991000  0.62930000  1.0
  H  H155  1  0.44519000  0.94510000  0.61512000  1.0
  C  C156  1  0.90993000  0.58025000  0.07228000  1.0
  C  C157  1  0.84007000  0.52347000  0.14497000  1.0
  C  C158  1  0.82298000  0.56183000  0.13453000  1.0
  C  C159  1  0.90675000  0.54566000  0.11255000  1.0
  C  C160  1  0.85579000  0.54561000  0.04816000  1.0
  C  C161  1  0.82341000  0.53012000  0.07446000  1.0
  C  C162  1  0.39613000  0.65207000  0.37991000  1.0
  C  C163  1  0.35523000  0.72734000  0.37293000  1.0
  C  C164  1  0.31655000  0.71595000  0.38492000  1.0
  C  C165  1  0.38344000  0.64528000  0.41880000  1.0
  C  C166  1  0.29466000  0.64327000  0.38040000  1.0
  C  C167  1  0.30928000  0.63173000  0.42007000  1.0
  C  C168  1  0.91428000  0.07246000  0.34889000  1.0
  C  C169  1  0.86057000  0.12725000  0.27699000  1.0
  C  C170  1  0.83460000  0.14736000  0.29028000  1.0
  C  C171  1  0.88410000  0.05816000  0.33390000  1.0
  C  C172  1  0.81866000  0.07519000  0.35888000  1.0
  C  C173  1  0.83068000  0.09061000  0.38479000  1.0
  C  C174  1  0.37858000  0.37390000  0.97015000  1.0
  C  C175  1  0.33910000  0.38766000  0.89129000  1.0
  C  C176  1  0.29879000  0.38622000  0.89679000  1.0
  C  C177  1  0.36939000  0.41400000  0.93769000  1.0
  C  C178  1  0.27862000  0.38188000  0.97500000  1.0
  C  C179  1  0.29582000  0.42066000  0.94861000  1.0
  C  C180  1  0.89018000  0.34690000  0.60863000  1.0
  C  C181  1  0.84136000  0.29718000  0.57949000  1.0
  C  C182  1  0.80625000  0.28783000  0.60145000  1.0
  C  C183  1  0.87748000  0.36042000  0.56786000  1.0
  C  C184  1  0.79278000  0.36544000  0.60826000  1.0
  C  C185  1  0.80479000  0.37764000  0.56756000  1.0
  C  C186  1  0.38457000  0.96865000  0.64245000  1.0
  C  C187  1  0.34206000  0.89329000  0.70743000  1.0
  C  C188  1  0.30240000  0.90216000  0.70616000  1.0
  C  C189  1  0.37248000  0.93691000  0.63485000  1.0
  C  C190  1  0.28357000  0.97835000  0.63011000  1.0
  C  C191  1  0.30063000  0.95312000  0.61620000  1.0
  C  C192  1  0.59050000  0.33645000  0.05911000  1.0
  C  C193  1  0.64617000  0.29193000  0.13739000  1.0
  C  C194  1  0.68294000  0.29231000  0.12108000  1.0
  C  C195  1  0.59835000  0.34306000  0.09250000  1.0
  C  C196  1  0.66388000  0.37896000  0.02899000  1.0
  C  C197  1  0.68428000  0.36872000  0.06566000  1.0
  C  C198  1  0.09294000  0.42209000  0.64040000  1.0
  C  C199  1  0.13891000  0.40340000  0.71358000  1.0
  C  C200  1  0.17067000  0.43039000  0.70355000  1.0
  C  C201  1  0.12551000  0.39724000  0.64578000  1.0
  C  C202  1  0.19181000  0.43882000  0.63463000  1.0
  C  C203  1  0.17635000  0.47817000  0.60689000  1.0
  C  C204  1  0.59929000  0.04507000  0.60294000  1.0
  C  C205  1  0.64583000  0.12384000  0.57754000  1.0
  C  C206  1  0.68130000  0.11154000  0.59880000  1.0
  C  C207  1  0.61278000  0.07159000  0.56233000  1.0
  C  C208  1  0.69407000  0.02525000  0.60324000  1.0
  C  C209  1  0.69018000  0.06099000  0.56385000  1.0
  C  C210  1  0.10482000  0.64548000  0.95164000  1.0
  C  C211  1  0.15067000  0.72366000  0.89429000  1.0
  C  C212  1  0.17758000  0.71440000  0.87169000  1.0
  C  C213  1  0.13583000  0.66119000  0.96413000  1.0
  C  C214  1  0.20025000  0.64246000  0.93148000  1.0
  C  C215  1  0.18036000  0.61561000  0.92146000  1.0
  C  C216  1  0.60920000  0.60181000  0.34888000  1.0
  C  C217  1  0.65294000  0.57214000  0.29756000  1.0
  C  C218  1  0.69195000  0.58386000  0.29484000  1.0
  C  C219  1  0.62061000  0.56036000  0.36403000  1.0
  C  C220  1  0.70857000  0.59964000  0.36373000  1.0
  C  C221  1  0.69303000  0.55938000  0.38093000  1.0
  C  C222  1  0.11584000  0.96142000  0.38542000  1.0
  C  C223  1  0.15470000  0.88788000  0.38901000  1.0
  C  C224  1  0.19485000  0.89023000  0.39347000  1.0
  C  C225  1  0.12569000  0.93051000  0.42602000  1.0
  C  C226  1  0.22128000  0.95485000  0.39728000  1.0
  C  C227  1  0.19656000  0.94659000  0.43062000  1.0
  C  C228  1  0.79800000  0.54737000  0.17823000  1.0
  C  C229  1  0.79213000  0.52522000  0.20452000  1.0
  C  C230  1  0.77540000  0.52834000  0.22247000  1.0
  C  C231  1  0.76424000  0.55463000  0.21385000  1.0
  C  C232  1  0.76996000  0.57713000  0.18724000  1.0
  C  C233  1  0.78671000  0.57317000  0.16984000  1.0
  C  C234  1  0.74505000  0.55804000  0.23160000  1.0
  C  C235  1  0.75296000  0.56631000  0.25075000  1.0
  C  C236  1  0.73429000  0.57076000  0.26626000  1.0
  C  C237  1  0.70803000  0.56748000  0.26308000  1.0
  C  C238  1  0.70045000  0.55966000  0.24392000  1.0
  C  C239  1  0.71850000  0.55489000  0.22814000  1.0
  C  C240  1  0.20840000  0.84682000  0.39453000  1.0
  C  C241  1  0.23261000  0.84409000  0.40658000  1.0
  C  C242  1  0.25094000  0.82557000  0.40676000  1.0
  C  C243  1  0.24516000  0.81004000  0.39366000  1.0
  C  C244  1  0.22057000  0.81259000  0.38163000  1.0
  C  C245  1  0.20239000  0.83052000  0.38277000  1.0
  C  C246  1  0.26497000  0.79187000  0.39178000  1.0
  C  C247  1  0.26198000  0.76271000  0.40661000  1.0
  C  C248  1  0.28030000  0.74608000  0.40339000  1.0
  C  C249  1  0.30193000  0.75772000  0.38656000  1.0
  C  C250  1  0.30524000  0.78640000  0.37281000  1.0
  C  C251  1  0.28683000  0.80370000  0.37468000  1.0
  C  C252  1  0.70627000  0.26114000  0.16522000  1.0
  C  C253  1  0.70269000  0.24030000  0.19272000  1.0
  C  C254  1  0.72320000  0.22379000  0.20875000  1.0
  C  C255  1  0.74823000  0.22881000  0.19724000  1.0
  C  C256  1  0.75223000  0.25062000  0.16978000  1.0
  C  C257  1  0.73113000  0.26626000  0.15406000  1.0
  C  C258  1  0.76999000  0.21091000  0.21374000  1.0
  C  C259  1  0.78090000  0.19177000  0.20697000  1.0
  C  C260  1  0.80103000  0.17460000  0.22313000  1.0
  C  C261  1  0.80993000  0.17524000  0.24644000  1.0
  C  C262  1  0.79913000  0.19420000  0.25302000  1.0
  C  C263  1  0.77957000  0.21236000  0.23675000  1.0
  C  C264  1  0.28485000  0.39527000  0.85005000  1.0
  C  C265  1  0.25912000  0.40149000  0.85199000  1.0
  C  C266  1  0.24107000  0.40510000  0.83179000  1.0
  C  C267  1  0.24891000  0.40200000  0.80917000  1.0
  C  C268  1  0.27490000  0.39538000  0.80724000  1.0
  C  C269  1  0.29252000  0.39259000  0.82748000  1.0
  C  C270  1  0.22977000  0.40451000  0.78833000  1.0
  C  C271  1  0.22672000  0.42983000  0.76311000  1.0
  C  C272  1  0.20759000  0.43195000  0.74442000  1.0
  C  C273  1  0.19135000  0.40969000  0.75022000  1.0
  C  C274  1  0.19409000  0.38505000  0.77540000  1.0
  C  C275  1  0.21311000  0.38204000  0.79449000  1.0
  C  C276  1  0.69778000  0.15787000  0.58871000  1.0
  C  C277  1  0.71792000  0.14803000  0.60796000  1.0
  C  C278  1  0.73604000  0.16609000  0.60899000  1.0
  C  C279  1  0.73354000  0.19498000  0.59069000  1.0
  C  C280  1  0.71306000  0.20510000  0.57137000  1.0
  C  C281  1  0.69559000  0.18637000  0.57060000  1.0
  C  C282  1  0.75285000  0.21439000  0.59099000  1.0
  C  C283  1  0.77300000  0.22429000  0.57123000  1.0
  C  C284  1  0.79051000  0.24359000  0.57078000  1.0
  C  C285  1  0.78859000  0.25332000  0.58944000  1.0
  C  C286  1  0.76847000  0.24368000  0.60872000  1.0
  C  C287  1  0.75049000  0.22444000  0.60976000  1.0
  C  C288  1  0.19765000  0.76125000  0.84346000  1.0
  C  C289  1  0.20175000  0.78660000  0.84226000  1.0
  C  C290  1  0.21900000  0.80619000  0.82326000  1.0
  C  C291  1  0.23198000  0.80057000  0.80425000  1.0
  C  C292  1  0.22772000  0.77507000  0.80512000  1.0
  C  C293  1  0.21076000  0.75573000  0.82482000  1.0
  C  C294  1  0.25082000  0.82067000  0.78442000  1.0
  C  C295  1  0.27747000  0.81635000  0.79042000  1.0
  C  C296  1  0.29528000  0.83462000  0.77109000  1.0
  C  C297  1  0.28732000  0.85728000  0.74607000  1.0
  C  C298  1  0.26101000  0.86117000  0.74000000  1.0
  C  C299  1  0.24258000  0.84319000  0.75872000  1.0
  C  C300  1  0.80437000  0.50075000  0.05667000  1.0
  C  C301  1  0.78029000  0.49681000  0.06932000  1.0
  C  C302  1  0.76193000  0.47910000  0.06801000  1.0
  C  C303  1  0.76804000  0.46453000  0.05398000  1.0
  C  C304  1  0.79254000  0.46812000  0.04146000  1.0
  C  C305  1  0.81018000  0.48642000  0.04275000  1.0
  C  C306  1  0.74876000  0.44604000  0.05195000  1.0
  C  C307  1  0.73145000  0.45668000  0.02928000  1.0
  C  C308  1  0.71321000  0.43903000  0.02776000  1.0
  C  C309  1  0.71184000  0.41105000  0.04798000  1.0
  C  C310  1  0.72916000  0.40058000  0.07015000  1.0
  C  C311  1  0.74748000  0.41768000  0.07260000  1.0
  C  C312  1  0.27546000  0.59722000  0.44914000  1.0
  C  C313  1  0.25547000  0.58069000  0.44865000  1.0
  C  C314  1  0.24338000  0.56090000  0.47299000  1.0
  C  C315  1  0.25119000  0.55787000  0.49870000  1.0
  C  C316  1  0.27123000  0.57476000  0.49940000  1.0
  C  C317  1  0.28319000  0.59402000  0.47462000  1.0
  C  C318  1  0.23832000  0.53724000  0.52460000  1.0
  C  C319  1  0.24784000  0.50979000  0.53965000  1.0
  C  C320  1  0.23482000  0.49029000  0.56348000  1.0
  C  C321  1  0.21282000  0.49739000  0.57298000  1.0
  C  C322  1  0.20387000  0.52469000  0.55836000  1.0
  C  C323  1  0.21611000  0.54467000  0.53418000  1.0
  C  C324  1  0.79457000  0.07275000  0.41916000  1.0
  C  C325  1  0.76886000  0.06427000  0.42273000  1.0
  C  C326  1  0.75478000  0.05984000  0.44599000  1.0
  C  C327  1  0.76674000  0.06437000  0.46623000  1.0
  C  C328  1  0.79276000  0.07318000  0.46268000  1.0
  C  C329  1  0.80633000  0.07699000  0.43930000  1.0
  C  C330  1  0.75214000  0.05970000  0.49103000  1.0
  C  C331  1  0.75211000  0.03321000  0.51519000  1.0
  C  C332  1  0.73762000  0.02894000  0.53816000  1.0
  C  C333  1  0.72343000  0.05034000  0.53795000  1.0
  C  C334  1  0.72394000  0.07658000  0.51421000  1.0
  C  C335  1  0.73787000  0.08155000  0.49064000  1.0
  C  C336  1  0.21393000  0.57889000  0.93489000  1.0
  C  C337  1  0.23524000  0.56671000  0.95205000  1.0
  C  C338  1  0.24541000  0.54155000  0.95651000  1.0
  C  C339  1  0.23425000  0.52850000  0.94278000  1.0
  C  C340  1  0.21291000  0.54097000  0.92496000  1.0
  C  C341  1  0.20297000  0.56586000  0.92148000  1.0
  C  C342  1  0.24478000  0.50193000  0.94710000  1.0
  C  C343  1  0.23505000  0.47648000  0.96864000  1.0
  C  C344  1  0.24535000  0.45159000  0.97250000  1.0
  C  C345  1  0.26478000  0.45126000  0.95532000  1.0
  C  C346  1  0.27409000  0.47648000  0.93389000  1.0
  C  C347  1  0.26459000  0.50181000  0.92968000  1.0
  C  C348  1  0.77496000  0.41768000  0.54118000  1.0
  C  C349  1  0.75960000  0.43711000  0.54330000  1.0
  C  C350  1  0.74937000  0.46005000  0.51979000  1.0
  C  C351  1  0.75422000  0.46333000  0.49331000  1.0
  C  C352  1  0.76930000  0.44339000  0.49102000  1.0
  C  C353  1  0.77960000  0.42101000  0.51497000  1.0
  C  C354  1  0.74373000  0.48756000  0.46816000  1.0
  C  C355  1  0.75818000  0.51239000  0.45428000  1.0
  C  C356  1  0.74771000  0.53528000  0.43091000  1.0
  C  C357  1  0.72353000  0.53403000  0.42060000  1.0
  C  C358  1  0.70946000  0.50937000  0.43429000  1.0
  C  C359  1  0.71908000  0.48617000  0.45803000  1.0
  C  C360  1  0.27037000  0.96246000  0.57760000  1.0
  C  C361  1  0.25361000  0.98236000  0.55833000  1.0
  C  C362  1  0.24477000  0.98091000  0.53536000  1.0
  C  C363  1  0.25248000  0.95840000  0.53198000  1.0
  C  C364  1  0.26889000  0.93771000  0.55187000  1.0
  C  C365  1  0.27778000  0.94022000  0.57423000  1.0
  C  C366  1  0.24389000  0.95682000  0.50747000  1.0
  C  C367  1  0.25892000  0.96917000  0.48299000  1.0
  C  C368  1  0.25049000  0.96776000  0.45991000  1.0
  C  C369  1  0.22769000  0.95418000  0.46053000  1.0
  C  C370  1  0.21301000  0.94185000  0.48480000  1.0
  C  C371  1  0.22063000  0.94313000  0.50826000  1.0
  C  C372  1  0.95774000  0.58204000  0.06702000  1.0
  C  C373  1  0.97969000  0.56535000  0.07506000  1.0
  C  C374  1  0.00298000  0.57485000  0.06067000  1.0
  C  C375  1  0.00446000  0.60224000  0.03792000  1.0
  C  C376  1  0.98244000  0.61954000  0.03013000  1.0
  C  C377  1  0.95936000  0.60906000  0.04465000  1.0
  C  C378  1  0.02875000  0.61265000  0.02208000  1.0
  C  C379  1  0.03348000  0.60932000  0.99889000  1.0
  C  C380  1  0.05650000  0.61929000  0.98409000  1.0
  C  C381  1  0.07477000  0.63295000  0.99142000  1.0
  C  C382  1  0.06993000  0.63612000  0.01435000  1.0
  C  C383  1  0.04734000  0.62600000  0.02996000  1.0
  C  C384  1  0.56445000  0.59356000  0.36848000  1.0
  C  C385  1  0.55880000  0.62123000  0.35998000  1.0
  C  C386  1  0.53449000  0.62912000  0.36454000  1.0
  C  C387  1  0.51537000  0.60864000  0.37850000  1.0
  C  C388  1  0.52105000  0.58055000  0.38751000  1.0
  C  C389  1  0.54541000  0.57353000  0.38215000  1.0
  C  C390  1  0.48955000  0.61656000  0.38354000  1.0
  C  C391  1  0.46967000  0.62341000  0.36376000  1.0
  C  C392  1  0.44543000  0.63103000  0.36876000  1.0
  C  C393  1  0.44032000  0.63165000  0.39308000  1.0
  C  C394  1  0.45992000  0.62448000  0.41266000  1.0
  C  C395  1  0.48455000  0.61723000  0.40818000  1.0
  C  C396  1  0.07086000  0.97164000  0.39398000  1.0
  C  C397  1  0.05338000  0.96853000  0.41441000  1.0
  C  C398  1  0.02930000  0.98159000  0.40758000  1.0
  C  C399  1  0.02227000  0.99793000  0.37933000  1.0
  C  C400  1  0.03981000  0.00107000  0.35849000  1.0
  C  C401  1  0.06387000  0.98805000  0.36613000  1.0
  C  C402  1  0.99664000  0.01140000  0.37158000  1.0
  C  C403  1  0.99319000  0.03854000  0.36716000  1.0
  C  C404  1  0.96881000  0.05091000  0.35973000  1.0
  C  C405  1  0.94789000  0.03719000  0.35617000  1.0
  C  C406  1  0.95155000  0.01056000  0.36029000  1.0
  C  C407  1  0.97548000  0.99731000  0.36823000  1.0
  C  C408  1  0.42324000  0.38297000  0.98095000  1.0
  C  C409  1  0.44295000  0.40261000  0.97261000  1.0
  C  C410  1  0.46661000  0.39641000  0.98648000  1.0
  C  C411  1  0.47089000  0.36949000  0.00920000  1.0
  C  C412  1  0.45114000  0.34934000  0.01768000  1.0
  C  C413  1  0.42755000  0.35647000  0.00359000  1.0
  C  C414  1  0.49589000  0.36250000  0.02400000  1.0
  C  C415  1  0.49957000  0.36668000  0.04682000  1.0
  C  C416  1  0.52359000  0.36083000  0.05995000  1.0
  C  C417  1  0.54396000  0.35052000  0.05136000  1.0
  C  C418  1  0.53998000  0.34588000  0.02917000  1.0
  C  C419  1  0.51636000  0.35195000  0.01519000  1.0
  C  C420  1  0.93486000  0.36647000  0.59827000  1.0
  C  C421  1  0.94407000  0.35218000  0.62549000  1.0
  C  C422  1  0.96862000  0.35741000  0.63223000  1.0
  C  C423  1  0.98432000  0.37791000  0.61115000  1.0
  C  C424  1  0.97506000  0.39256000  0.58357000  1.0
  C  C425  1  0.95061000  0.38638000  0.57755000  1.0
  C  C426  1  0.01030000  0.38388000  0.61787000  1.0
  C  C427  1  0.03202000  0.36920000  0.61657000  1.0
  C  C428  1  0.05638000  0.37502000  0.62317000  1.0
  C  C429  1  0.05986000  0.39538000  0.63051000  1.0
  C  C430  1  0.03833000  0.40987000  0.63164000  1.0
  C  C431  1  0.01359000  0.40431000  0.62564000  1.0
  C  C432  1  0.55486000  0.03575000  0.59186000  1.0
  C  C433  1  0.54817000  0.01572000  0.61892000  1.0
  C  C434  1  0.52353000  0.00396000  0.62532000  1.0
  C  C435  1  0.50509000  0.01209000  0.60391000  1.0
  C  C436  1  0.51181000  0.03205000  0.57638000  1.0
  C  C437  1  0.53650000  0.04370000  0.57089000  1.0
  C  C438  1  0.47897000  0.99973000  0.61032000  1.0
  C  C439  1  0.45901000  0.01228000  0.61753000  1.0
  C  C440  1  0.43458000  0.00002000  0.62409000  1.0
  C  C441  1  0.42935000  0.97580000  0.62332000  1.0
  C  C442  1  0.44903000  0.96384000  0.61570000  1.0
  C  C443  1  0.47383000  0.97522000  0.60944000  1.0
  N  N444  1  0.89246000  0.56444000  0.09138000  1.0
  N  N445  1  0.81517000  0.54322000  0.16029000  1.0
  N  N446  1  0.82584000  0.51916000  0.16690000  1.0
  N  N447  1  0.83867000  0.54991000  0.12445000  1.0
  N  N448  1  0.84390000  0.54667000  0.06898000  1.0
  N  N449  1  0.82294000  0.51951000  0.05744000  1.0
  N  N450  1  0.84321000  0.52909000  0.04097000  1.0
  N  N451  1  0.93389000  0.57135000  0.08163000  1.0
  N  N452  1  0.93205000  0.54962000  0.10680000  1.0
  N  N453  1  0.37583000  0.65601000  0.39237000  1.0
  N  N454  1  0.32054000  0.74064000  0.38309000  1.0
  N  N455  1  0.34468000  0.74797000  0.37547000  1.0
  N  N456  1  0.33812000  0.70715000  0.37854000  1.0
  N  N457  1  0.31422000  0.64823000  0.39304000  1.0
  N  N458  1  0.28745000  0.61729000  0.42360000  1.0
  N  N459  1  0.27826000  0.62443000  0.39880000  1.0
  N  N460  1  0.41530000  0.63932000  0.39820000  1.0
  N  N461  1  0.40748000  0.63509000  0.42257000  1.0
  N  N462  1  0.88985000  0.07797000  0.34001000  1.0
  N  N463  1  0.82983000  0.15646000  0.26337000  1.0
  N  N464  1  0.84594000  0.14385000  0.25494000  1.0
  N  N465  1  0.85389000  0.12895000  0.29936000  1.0
  N  N466  1  0.83746000  0.08996000  0.36193000  1.0
  N  N467  1  0.80854000  0.07665000  0.39518000  1.0
  N  N468  1  0.80090000  0.06701000  0.37899000  1.0
  N  N469  1  0.92297000  0.05012000  0.34808000  1.0
  N  N470  1  0.90411000  0.04105000  0.33878000  1.0
  N  N471  1  0.35968000  0.38835000  0.95238000  1.0
  N  N472  1  0.30337000  0.39167000  0.87079000  1.0
  N  N473  1  0.32858000  0.39253000  0.86724000  1.0
  N  N474  1  0.32099000  0.38358000  0.91014000  1.0
  N  N475  1  0.29871000  0.39353000  0.95791000  1.0
  N  N476  1  0.27467000  0.42522000  0.95974000  1.0
  N  N477  1  0.26386000  0.40098000  0.97632000  1.0
  N  N478  1  0.39903000  0.39029000  0.96633000  1.0
  N  N479  1  0.39334000  0.41543000  0.94599000  1.0
  N  N480  1  0.86968000  0.34631000  0.59435000  1.0
  N  N481  1  0.80734000  0.27266000  0.58880000  1.0
  N  N482  1  0.82928000  0.27850000  0.57497000  1.0
  N  N483  1  0.82747000  0.30340000  0.59596000  1.0
  N  N484  1  0.80967000  0.35905000  0.59409000  1.0
  N  N485  1  0.78560000  0.39468000  0.56577000  1.0
  N  N486  1  0.77805000  0.38717000  0.59121000  1.0
  N  N487  1  0.90972000  0.36083000  0.59135000  1.0
  N  N488  1  0.90184000  0.36939000  0.56578000  1.0
  N  N489  1  0.36437000  0.95238000  0.64563000  1.0
  N  N490  1  0.30613000  0.87608000  0.72698000  1.0
  N  N491  1  0.33095000  0.87044000  0.72793000  1.0
  N  N492  1  0.32474000  0.91345000  0.69354000  1.0
  N  N493  1  0.30351000  0.96119000  0.63500000  1.0
  N  N494  1  0.27968000  0.96505000  0.60049000  1.0
  N  N495  1  0.26896000  0.98095000  0.60905000  1.0
  N  N496  1  0.40420000  0.96323000  0.63010000  1.0
  N  N497  1  0.39673000  0.94331000  0.62536000  1.0
  N  N498  1  0.60952000  0.33488000  0.07608000  1.0
  N  N499  1  0.68448000  0.27664000  0.14883000  1.0
  N  N500  1  0.66147000  0.27626000  0.15914000  1.0
  N  N501  1  0.65901000  0.30219000  0.11334000  1.0
  N  N502  1  0.66600000  0.35912000  0.05566000  1.0
  N  N503  1  0.69288000  0.39350000  0.04566000  1.0
  N  N504  1  0.68012000  0.40005000  0.02267000  1.0
  N  N505  1  0.56855000  0.34521000  0.06513000  1.0
  N  N506  1  0.57341000  0.34939000  0.08603000  1.0
  N  N507  1  0.11819000  0.42020000  0.64601000  1.0
  N  N508  1  0.17189000  0.41195000  0.73082000  1.0
  N  N509  1  0.15210000  0.39492000  0.73722000  1.0
  N  N510  1  0.15004000  0.42548000  0.69222000  1.0
  N  N511  1  0.17086000  0.45457000  0.63025000  1.0
  N  N512  1  0.19985000  0.47671000  0.59751000  1.0
  N  N513  1  0.20959000  0.45208000  0.61477000  1.0
  N  N514  1  0.08527000  0.40094000  0.63693000  1.0
  N  N515  1  0.10564000  0.38536000  0.64023000  1.0
  N  N516  1  0.62001000  0.05970000  0.58896000  1.0
  N  N517  1  0.67941000  0.13919000  0.58744000  1.0
  N  N518  1  0.65725000  0.14702000  0.57403000  1.0
  N  N519  1  0.66039000  0.10137000  0.59292000  1.0
  N  N520  1  0.68067000  0.04892000  0.58964000  1.0
  N  N521  1  0.70873000  0.04513000  0.56198000  1.0
  N  N522  1  0.71118000  0.02269000  0.58658000  1.0
  N  N523  1  0.58018000  0.04799000  0.58534000  1.0
  N  N524  1  0.58855000  0.06463000  0.55987000  1.0
  N  N525  1  0.12835000  0.65653000  0.94378000  1.0
  N  N526  1  0.18003000  0.74145000  0.86354000  1.0
  N  N527  1  0.16326000  0.74733000  0.87769000  1.0
  N  N528  1  0.15917000  0.70274000  0.89102000  1.0
  N  N529  1  0.17771000  0.63951000  0.92146000  1.0
  N  N530  1  0.20373000  0.60455000  0.93112000  1.0
  N  N531  1  0.21625000  0.62123000  0.93752000  1.0
  N  N532  1  0.09831000  0.64351000  0.97595000  1.0
  N  N533  1  0.11768000  0.65338000  0.98382000  1.0
  N  N534  1  0.62910000  0.58650000  0.34893000  1.0
  N  N535  1  0.68891000  0.57187000  0.27922000  1.0
  N  N536  1  0.66448000  0.56453000  0.28083000  1.0
  N  N537  1  0.66959000  0.58428000  0.30660000  1.0
  N  N538  1  0.68956000  0.58539000  0.36020000  1.0
  N  N539  1  0.71339000  0.55800000  0.39650000  1.0
  N  N540  1  0.72323000  0.58315000  0.38579000  1.0
  N  N541  1  0.58935000  0.58546000  0.36349000  1.0
  N  N542  1  0.59643000  0.55947000  0.37298000  1.0
  N  N543  1  0.13513000  0.94450000  0.40017000  1.0
  N  N544  1  0.18997000  0.86645000  0.39367000  1.0
  N  N545  1  0.16488000  0.86489000  0.39075000  1.0
  N  N546  1  0.17295000  0.90416000  0.39050000  1.0
  N  N547  1  0.19692000  0.94777000  0.40600000  1.0
  N  N548  1  0.21993000  0.95278000  0.43648000  1.0
  N  N549  1  0.23546000  0.95802000  0.41564000  1.0
  N  N550  1  0.09541000  0.95776000  0.40178000  1.0
  N  N551  1  0.10151000  0.93844000  0.42726000  1.0
  N  N552  1  0.75846000  0.60395000  0.17716000  1.0
  N  N553  1  0.76936000  0.50440000  0.24879000  1.0
  N  N554  1  0.77961000  0.57109000  0.25422000  1.0
  N  N555  1  0.70940000  0.54759000  0.20826000  1.0
  N  N556  1  0.21391000  0.79769000  0.36766000  1.0
  N  N557  1  0.27522000  0.82285000  0.42026000  1.0
  N  N558  1  0.24063000  0.74967000  0.42503000  1.0
  N  N559  1  0.29045000  0.83316000  0.35872000  1.0
  N  N560  1  0.77746000  0.25723000  0.15755000  1.0
  N  N561  1  0.71811000  0.20177000  0.23643000  1.0
  N  N562  1  0.77153000  0.18910000  0.18415000  1.0
  N  N563  1  0.76977000  0.23212000  0.24385000  1.0
  N  N564  1  0.28382000  0.39161000  0.78490000  1.0
  N  N565  1  0.21491000  0.41164000  0.83477000  1.0
  N  N566  1  0.24184000  0.45397000  0.75660000  1.0
  N  N567  1  0.21502000  0.35613000  0.82005000  1.0
  N  N568  1  0.70984000  0.23419000  0.55216000  1.0
  N  N569  1  0.75659000  0.15471000  0.62892000  1.0
  N  N570  1  0.77589000  0.21527000  0.55130000  1.0
  N  N571  1  0.72954000  0.21640000  0.62919000  1.0
  N  N572  1  0.24057000  0.76831000  0.78642000  1.0
  N  N573  1  0.22288000  0.83162000  0.82352000  1.0
  N  N574  1  0.28686000  0.79346000  0.81586000  1.0
  N  N575  1  0.21590000  0.84752000  0.75062000  1.0
  N  N576  1  0.79961000  0.45415000  0.02663000  1.0
  N  N577  1  0.73754000  0.47580000  0.08157000  1.0
  N  N578  1  0.73149000  0.48542000  0.00810000  1.0
  N  N579  1  0.76499000  0.40564000  0.09569000  1.0
  N  N580  1  0.28017000  0.57226000  0.52499000  1.0
  N  N581  1  0.22276000  0.54475000  0.47100000  1.0
  N  N582  1  0.27006000  0.50102000  0.53062000  1.0
  N  N583  1  0.20604000  0.57244000  0.52013000  1.0
  N  N584  1  0.80600000  0.07751000  0.48287000  1.0
  N  N585  1  0.72825000  0.05156000  0.44819000  1.0
  N  N586  1  0.76587000  0.01017000  0.51653000  1.0
  N  N587  1  0.73776000  0.10903000  0.46690000  1.0
  N  N588  1  0.20060000  0.52841000  0.91084000  1.0
  N  N589  1  0.26738000  0.53008000  0.97443000  1.0
  N  N590  1  0.21536000  0.47538000  0.98732000  1.0
  N  N591  1  0.27477000  0.52704000  0.90714000  1.0
  N  N592  1  0.77498000  0.44585000  0.46462000  1.0
  N  N593  1  0.73361000  0.47923000  0.52342000  1.0
  N  N594  1  0.78307000  0.51511000  0.46400000  1.0
  N  N595  1  0.70378000  0.46134000  0.47102000  1.0
  N  N596  1  0.27741000  0.91453000  0.54933000  1.0
  N  N597  1  0.22761000  0.00212000  0.51621000  1.0
  N  N598  1  0.28233000  0.98393000  0.48080000  1.0
  N  N599  1  0.20492000  0.92970000  0.53278000  1.0
  N  N600  1  0.98283000  0.64742000  0.00711000  1.0
  N  N601  1  0.02487000  0.55659000  0.06990000  1.0
  N  N602  1  0.01561000  0.59520000  0.99049000  1.0
  N  N603  1  0.04339000  0.63023000  0.05313000  1.0
  N  N604  1  0.50222000  0.55897000  0.40134000  1.0
  N  N605  1  0.52994000  0.65786000  0.35550000  1.0
  N  N606  1  0.47378000  0.62348000  0.33820000  1.0
  N  N607  1  0.50385000  0.60990000  0.42924000  1.0
  N  N608  1  0.03391000  0.01786000  0.32950000  1.0
  N  N609  1  0.01207000  0.97727000  0.42960000  1.0
  N  N610  1  0.01389000  0.05365000  0.37068000  1.0
  N  N611  1  0.97800000  0.96997000  0.37191000  1.0
  N  N612  1  0.45430000  0.32186000  0.04095000  1.0
  N  N613  1  0.48617000  0.41749000  0.97662000  1.0
  N  N614  1  0.47956000  0.37770000  0.05638000  1.0
  N  N615  1  0.51347000  0.34663000  0.99260000  1.0
  N  N616  1  0.99037000  0.41317000  0.56126000  1.0
  N  N617  1  0.97690000  0.34219000  0.66065000  1.0
  N  N618  1  0.02975000  0.34783000  0.60939000  1.0
  N  N619  1  0.99227000  0.42015000  0.62685000  1.0
  N  N620  1  0.49374000  0.04134000  0.55390000  1.0
  N  N621  1  0.51796000  0.98323000  0.65348000  1.0
  N  N622  1  0.46326000  0.03697000  0.61907000  1.0
  N  N623  1  0.49318000  0.96197000  0.60159000  1.0
  O  O624  1  0.75498000  0.61402000  0.19346000  1.0
  O  O625  1  0.75382000  0.61965000  0.15091000  1.0
  O  O626  1  0.77111000  0.47976000  0.25192000  1.0
  O  O627  1  0.76395000  0.50667000  0.27029000  1.0
  O  O628  1  0.79791000  0.55730000  0.25072000  1.0
  O  O629  1  0.78566000  0.58811000  0.26283000  1.0
  O  O630  1  0.72167000  0.52970000  0.20413000  1.0
  O  O631  1  0.68728000  0.55667000  0.19626000  1.0
  O  O632  1  0.23051000  0.79470000  0.35194000  1.0
  O  O633  1  0.19029000  0.78995000  0.36792000  1.0
  O  O634  1  0.28467000  0.84357000  0.42184000  1.0
  O  O635  1  0.28667000  0.79900000  0.43357000  1.0
  O  O636  1  0.23153000  0.75970000  0.43988000  1.0
  O  O637  1  0.23198000  0.72601000  0.42928000  1.0
  O  O638  1  0.27116000  0.84949000  0.34620000  1.0
  O  O639  1  0.31352000  0.84349000  0.35387000  1.0
  O  O640  1  0.79753000  0.25524000  0.17231000  1.0
  O  O641  1  0.78016000  0.26810000  0.13097000  1.0
  O  O642  1  0.70019000  0.20458000  0.25107000  1.0
  O  O643  1  0.72912000  0.17781000  0.24596000  1.0
  O  O644  1  0.74708000  0.19078000  0.17870000  1.0
  O  O645  1  0.78707000  0.18167000  0.17081000  1.0
  O  O646  1  0.76329000  0.25687000  0.22468000  1.0
  O  O647  1  0.76988000  0.22645000  0.26945000  1.0
  O  O648  1  0.26903000  0.38082000  0.77402000  1.0
  O  O649  1  0.30769000  0.39663000  0.77700000  1.0
  O  O650  1  0.20530000  0.40287000  0.85927000  1.0
  O  O651  1  0.20145000  0.42864000  0.81332000  1.0
  O  O652  1  0.26579000  0.45189000  0.76399000  1.0
  O  O653  1  0.23225000  0.47852000  0.74108000  1.0
  O  O654  1  0.23725000  0.34613000  0.83119000  1.0
  O  O655  1  0.19464000  0.34102000  0.83085000  1.0
  O  O656  1  0.71487000  0.25248000  0.55941000  1.0
  O  O657  1  0.69929000  0.24238000  0.52818000  1.0
  O  O658  1  0.75319000  0.13170000  0.65204000  1.0
  O  O659  1  0.77940000  0.16569000  0.62322000  1.0
  O  O660  1  0.77102000  0.18987000  0.55790000  1.0
  O  O661  1  0.78597000  0.23174000  0.52722000  1.0
  O  O662  1  0.71985000  0.19167000  0.64071000  1.0
  O  O663  1  0.72139000  0.23325000  0.63725000  1.0
  O  O664  1  0.24485000  0.78713000  0.76088000  1.0
  O  O665  1  0.24569000  0.74267000  0.79409000  1.0
  O  O666  1  0.20461000  0.84153000  0.83193000  1.0
  O  O667  1  0.24521000  0.84367000  0.81789000  1.0
  O  O668  1  0.27466000  0.78519000  0.83901000  1.0
  O  O669  1  0.30912000  0.78257000  0.81649000  1.0
  O  O670  1  0.19770000  0.84159000  0.76867000  1.0
  O  O671  1  0.20973000  0.85963000  0.72459000  1.0
  O  O672  1  0.79216000  0.42896000  0.03504000  1.0
  O  O673  1  0.81567000  0.46566000  0.00607000  1.0
  O  O674  1  0.73601000  0.47866000  0.10324000  1.0
  O  O675  1  0.71643000  0.47251000  0.07109000  1.0
  O  O676  1  0.75286000  0.49912000  0.99918000  1.0
  O  O677  1  0.71018000  0.49734000  0.99565000  1.0
  O  O678  1  0.77297000  0.41958000  0.10718000  1.0
  O  O679  1  0.77124000  0.37968000  0.10701000  1.0
  O  O680  1  0.26437000  0.56670000  0.54514000  1.0
  O  O681  1  0.30393000  0.57803000  0.52734000  1.0
  O  O682  1  0.20840000  0.55513000  0.44899000  1.0
  O  O683  1  0.21973000  0.51890000  0.48962000  1.0
  O  O684  1  0.28954000  0.51744000  0.51926000  1.0
  O  O685  1  0.27194000  0.47554000  0.53613000  1.0
  O  O686  1  0.20637000  0.58734000  0.49333000  1.0
  O  O687  1  0.19420000  0.58204000  0.53408000  1.0
  O  O688  1  0.79415000  0.08776000  0.49621000  1.0
  O  O689  1  0.83069000  0.07362000  0.48615000  1.0
  O  O690  1  0.71471000  0.05914000  0.42596000  1.0
  O  O691  1  0.71813000  0.03436000  0.47199000  1.0
  O  O692  1  0.78813000  0.01358000  0.50470000  1.0
  O  O693  1  0.75727000  0.98514000  0.53192000  1.0
  O  O694  1  0.73811000  0.11293000  0.44193000  1.0
  O  O695  1  0.73487000  0.13036000  0.47016000  1.0
  O  O696  1  0.21390000  0.51535000  0.90124000  1.0
  O  O697  1  0.17619000  0.53225000  0.90519000  1.0
  O  O698  1  0.28364000  0.54633000  0.97701000  1.0
  O  O699  1  0.27004000  0.50352000  0.99025000  1.0
  O  O700  1  0.19670000  0.49324000  0.97872000  1.0
  O  O701  1  0.21465000  0.45481000  0.01259000  1.0
  O  O702  1  0.27781000  0.54892000  0.90941000  1.0
  O  O703  1  0.28342000  0.52745000  0.88509000  1.0
  O  O704  1  0.75800000  0.45538000  0.44491000  1.0
  O  O705  1  0.79639000  0.43601000  0.46106000  1.0
  O  O706  1  0.72039000  0.47072000  0.54601000  1.0
  O  O707  1  0.73413000  0.50556000  0.50562000  1.0
  O  O708  1  0.79920000  0.49459000  0.47458000  1.0
  O  O709  1  0.79073000  0.53907000  0.45981000  1.0
  O  O710  1  0.70359000  0.44539000  0.49772000  1.0
  O  O711  1  0.68802000  0.45590000  0.45629000  1.0
  O  O712  1  0.26223000  0.90285000  0.53970000  1.0
  O  O713  1  0.29964000  0.90324000  0.55920000  1.0
  O  O714  1  0.21240000  0.01477000  0.52476000  1.0
  O  O715  1  0.22865000  0.01079000  0.48986000  1.0
  O  O716  1  0.29814000  0.97523000  0.50152000  1.0
  O  O717  1  0.28924000  0.00465000  0.45707000  1.0
  O  O718  1  0.20261000  0.93987000  0.54912000  1.0
  O  O719  1  0.19096000  0.90843000  0.53760000  1.0
  O  O720  1  0.00295000  0.66304000  0.00197000  1.0
  O  O721  1  0.96205000  0.65828000  0.99280000  1.0
  O  O722  1  0.02689000  0.53756000  0.09576000  1.0
  O  O723  1  0.04162000  0.55700000  0.05243000  1.0
  O  O724  1  0.99094000  0.59810000  0.99174000  1.0
  O  O725  1  0.02399000  0.58143000  0.97896000  1.0
  O  O726  1  0.03162000  0.61187000  0.07529000  1.0
  O  O727  1  0.05375000  0.65138000  0.05320000  1.0
  O  O728  1  0.48595000  0.55954000  0.41870000  1.0
  O  O729  1  0.50286000  0.53720000  0.39858000  1.0
  O  O730  1  0.54883000  0.67357000  0.35454000  1.0
  O  O731  1  0.50772000  0.66918000  0.34571000  1.0
  O  O732  1  0.48829000  0.60501000  0.33729000  1.0
  O  O733  1  0.46096000  0.64046000  0.31617000  1.0
  O  O734  1  0.52788000  0.61616000  0.42279000  1.0
  O  O735  1  0.49709000  0.59916000  0.45502000  1.0
  O  O736  1  0.01085000  0.01848000  0.32024000  1.0
  O  O737  1  0.05224000  0.03057000  0.31175000  1.0
  O  O738  1  0.01326000  0.95449000  0.45331000  1.0
  O  O739  1  0.99682000  0.99680000  0.42716000  1.0
  O  O740  1  0.03733000  0.05156000  0.36387000  1.0
  O  O741  1  0.00898000  0.07166000  0.37835000  1.0
  O  O742  1  0.99269000  0.95156000  0.39112000  1.0
  O  O743  1  0.96359000  0.96248000  0.35777000  1.0
  O  O744  1  0.47626000  0.30914000  0.04603000  1.0
  O  O745  1  0.43449000  0.30837000  0.05579000  1.0
  O  O746  1  0.48710000  0.43622000  0.95057000  1.0
  O  O747  1  0.50147000  0.41987000  0.99371000  1.0
  O  O748  1  0.45563000  0.37099000  0.05641000  1.0
  O  O749  1  0.48547000  0.39245000  0.06768000  1.0
  O  O750  1  0.49990000  0.36292000  0.97094000  1.0
  O  O751  1  0.52647000  0.32682000  0.99244000  1.0
  O  O752  1  0.00532000  0.42967000  0.56498000  1.0
  O  O753  1  0.98753000  0.41732000  0.53633000  1.0
  O  O754  1  0.96005000  0.33333333  0.68049667  1.0
  O  O755  1  0.00074000  0.33477000  0.66698000  1.0
  O  O756  1  0.01331000  0.34992000  0.59091000  1.0
  O  O757  1  0.04592000  0.32733000  0.61943000  1.0
  O  O758  1  0.96982000  0.40892000  0.63557000  1.0
  O  O759  1  0.99587000  0.44534000  0.62168000  1.0
  O  O760  1  0.47714000  0.02445000  0.55295000  1.0
  O  O761  1  0.49544000  0.06625000  0.53282000  1.0
  O  O762  1  0.53619000  0.96725000  0.66936000  1.0
  O  O763  1  0.49548000  0.98185000  0.66426000  1.0
  O  O764  1  0.47817000  0.05657000  0.60148000  1.0
  O  O765  1  0.45019000  0.04116000  0.63649000  1.0
  O  O766  1  0.51710000  0.96142000  0.60853000  1.0
  O  O767  1  0.48652000  0.94809000  0.58958000  1.0
