# generated using pymatgen
data_ZnCu8H50C96Br8(N7Cl8)2
_symmetry_space_group_name_H-M   'P 1'
_cell_length_a   27.30630000
_cell_length_b   44.93290000
_cell_length_c   45.00040000
_cell_angle_alpha   93.82300000
_cell_angle_beta   95.69600000
_cell_angle_gamma   90.08800000
_symmetry_Int_Tables_number   1
_chemical_formula_structural   ZnCu8H50C96Br8(N7Cl8)2
_chemical_formula_sum   'Zn4 Cu32 H200 C384 Br32 N56 Cl64'
_cell_volume   54816.57797887
_cell_formula_units_Z   4
loop_
 _symmetry_equiv_pos_site_id
 _symmetry_equiv_pos_as_xyz
  1  'x, y, z'
loop_
 _atom_site_type_symbol
 _atom_site_label
 _atom_site_symmetry_multiplicity
 _atom_site_fract_x
 _atom_site_fract_y
 _atom_site_fract_z
 _atom_site_occupancy
  Zn  Zn0  1  0.46391000  0.97776000  0.95944000  1.0
  Zn  Zn1  1  0.21157000  0.47910000  0.96795000  1.0
  Zn  Zn2  1  0.71692000  0.98528000  0.46795000  1.0
  Zn  Zn3  1  0.96059000  0.49190000  0.47238000  1.0
  Cu  Cu4  1  0.81180000  0.70722000  0.64526000  1.0
  Cu  Cu5  1  0.80769000  0.76346000  0.66832000  1.0
  Cu  Cu6  1  0.79226000  0.74817000  0.61188000  1.0
  Cu  Cu7  1  0.87460000  0.74912000  0.64777000  1.0
  Cu  Cu8  1  0.03326000  0.31046000  0.67605000  1.0
  Cu  Cu9  1  0.05037000  0.28783000  0.72831000  1.0
  Cu  Cu10  1  0.04546000  0.34365000  0.72140000  1.0
  Cu  Cu11  1  0.11444000  0.30680000  0.70973000  1.0
  Cu  Cu12  1  0.86160000  0.19027000  0.30847000  1.0
  Cu  Cu13  1  0.90366000  0.22359000  0.27146000  1.0
  Cu  Cu14  1  0.86043000  0.24534000  0.31565000  1.0
  Cu  Cu15  1  0.82300000  0.21915000  0.26482000  1.0
  Cu  Cu16  1  0.06043000  0.63530000  0.25057000  1.0
  Cu  Cu17  1  0.05488000  0.66712000  0.20408000  1.0
  Cu  Cu18  1  0.09070000  0.61374000  0.20492000  1.0
  Cu  Cu19  1  0.13045000  0.66397000  0.22763000  1.0
  Cu  Cu20  1  0.32522000  0.19716000  0.12400000  1.0
  Cu  Cu21  1  0.30644000  0.25320000  0.14483000  1.0
  Cu  Cu22  1  0.29704000  0.23645000  0.09012000  1.0
  Cu  Cu23  1  0.37631000  0.24349000  0.12693000  1.0
  Cu  Cu24  1  0.55643000  0.81145000  0.17562000  1.0
  Cu  Cu25  1  0.57530000  0.78903000  0.22769000  1.0
  Cu  Cu26  1  0.56424000  0.84453000  0.22124000  1.0
  Cu  Cu27  1  0.63840000  0.81147000  0.21078000  1.0
  Cu  Cu28  1  0.38157000  0.67179000  0.81088000  1.0
  Cu  Cu29  1  0.39795000  0.72695000  0.79694000  1.0
  Cu  Cu30  1  0.36333000  0.71315000  0.84465000  1.0
  Cu  Cu31  1  0.32021000  0.71060000  0.79062000  1.0
  Cu  Cu32  1  0.54813000  0.13208000  0.75014000  1.0
  Cu  Cu33  1  0.53160000  0.16393000  0.70304000  1.0
  Cu  Cu34  1  0.55964000  0.11007000  0.70067000  1.0
  Cu  Cu35  1  0.60953000  0.15795000  0.72034000  1.0
  H  H36  1  0.41117000  0.87178000  0.95374000  1.0
  H  H37  1  0.52354000  0.98103000  0.06717000  1.0
  H  H38  1  0.42856000  0.88696000  0.01038000  1.0
  H  H39  1  0.50136000  0.91889000  0.86765000  1.0
  H  H40  1  0.43874000  0.07013000  0.90602000  1.0
  H  H41  1  0.50193000  0.03599000  0.05615000  1.0
  H  H42  1  0.41677000  0.08418000  0.96010000  1.0
  H  H43  1  0.52458000  0.97395000  0.85921000  1.0
  H  H44  1  0.12362000  0.38678000  0.92618000  1.0
  H  H45  1  0.26436000  0.43979000  0.06674000  1.0
  H  H46  1  0.14646000  0.37861000  0.98263000  1.0
  H  H47  1  0.22066000  0.45474000  0.85948000  1.0
  H  H48  1  0.20190000  0.58755000  0.95398000  1.0
  H  H49  1  0.25712000  0.49715000  0.07701000  1.0
  H  H50  1  0.18608000  0.58192000  0.00978000  1.0
  H  H51  1  0.25438000  0.50888000  0.86924000  1.0
  H  H52  1  0.64891000  0.89082000  0.41476000  1.0
  H  H53  1  0.73152000  0.94170000  0.56806000  1.0
  H  H54  1  0.66650000  0.87860000  0.47008000  1.0
  H  H55  1  0.74758000  0.96641000  0.36054000  1.0
  H  H56  1  0.71254000  0.09552000  0.45866000  1.0
  H  H57  1  0.71046000  0.99646000  0.57862000  1.0
  H  H58  1  0.68171000  0.08730000  0.51074000  1.0
  H  H59  1  0.77617000  0.02083000  0.37405000  1.0
  H  H60  1  0.88703000  0.38983000  0.46147000  1.0
  H  H61  1  0.96931000  0.48693000  0.58110000  1.0
  H  H62  1  0.90552000  0.40215000  0.51889000  1.0
  H  H63  1  0.98990000  0.43325000  0.37837000  1.0
  H  H64  1  0.95588000  0.58744000  0.42269000  1.0
  H  H65  1  0.94927000  0.54205000  0.57196000  1.0
  H  H66  1  0.91881000  0.59952000  0.47291000  1.0
  H  H67  1  0.01992000  0.48687000  0.37125000  1.0
  H  H68  1  0.83649000  0.67078000  0.58785000  1.0
  H  H69  1  0.87841000  0.66936000  0.68103000  1.0
  H  H70  1  0.93563000  0.62854000  0.67264000  1.0
  H  H71  1  0.94330000  0.60745000  0.62150000  1.0
  H  H72  1  0.72189000  0.73501000  0.69236000  1.0
  H  H73  1  0.64120000  0.80949000  0.72843000  1.0
  H  H74  1  0.70650000  0.84308000  0.71663000  1.0
  H  H75  1  0.77687000  0.82270000  0.69148000  1.0
  H  H76  1  0.70709000  0.76763000  0.63918000  1.0
  H  H77  1  0.65845000  0.81383000  0.64359000  1.0
  H  H78  1  0.66975000  0.85365000  0.61000000  1.0
  H  H79  1  0.77795000  0.79922000  0.56856000  1.0
  H  H80  1  0.96008000  0.75629000  0.69573000  1.0
  H  H81  1  0.05956000  0.68671000  0.66909000  1.0
  H  H82  1  0.00744000  0.67742000  0.62293000  1.0
  H  H83  1  0.93108000  0.70585000  0.61332000  1.0
  H  H84  1  0.00920000  0.36013000  0.63451000  1.0
  H  H85  1  0.11366000  0.29073000  0.64019000  1.0
  H  H86  1  0.15098000  0.30733000  0.59644000  1.0
  H  H87  1  0.11641000  0.35044000  0.57064000  1.0
  H  H88  1  0.94910000  0.26380000  0.70674000  1.0
  H  H89  1  0.88295000  0.25318000  0.78901000  1.0
  H  H90  1  0.96144000  0.26789000  0.81710000  1.0
  H  H91  1  0.03177000  0.28174000  0.79029000  1.0
  H  H92  1  0.96184000  0.33382000  0.75579000  1.0
  H  H93  1  0.94303000  0.34378000  0.80816000  1.0
  H  H94  1  0.00414000  0.37018000  0.84485000  1.0
  H  H95  1  0.10184000  0.37479000  0.77578000  1.0
  H  H96  1  0.18648000  0.25837000  0.71931000  1.0
  H  H97  1  0.30752000  0.27989000  0.66952000  1.0
  H  H98  1  0.25987000  0.32191000  0.65002000  1.0
  H  H99  1  0.17858000  0.33320000  0.66700000  1.0
  H  H100  1  0.82416000  0.15860000  0.36047000  1.0
  H  H101  1  0.78291000  0.16230000  0.26797000  1.0
  H  H102  1  0.72244000  0.12222000  0.26828000  1.0
  H  H103  1  0.71586000  0.09709000  0.31439000  1.0
  H  H104  1  0.97758000  0.21294000  0.22953000  1.0
  H  H105  1  0.11613000  0.23927000  0.27877000  1.0
  H  H106  1  0.07231000  0.25057000  0.32364000  1.0
  H  H107  1  0.98200000  0.24272000  0.32072000  1.0
  H  H108  1  0.92354000  0.27581000  0.27676000  1.0
  H  H109  1  0.96438000  0.32439000  0.27703000  1.0
  H  H110  1  0.96083000  0.36067000  0.32031000  1.0
  H  H111  1  0.87274000  0.29800000  0.36098000  1.0
  H  H112  1  0.71004000  0.22297000  0.25838000  1.0
  H  H113  1  0.66763000  0.17177000  0.17563000  1.0
  H  H114  1  0.75483000  0.16179000  0.17023000  1.0
  H  H115  1  0.81865000  0.18311000  0.20819000  1.0
  H  H116  1  0.03740000  0.59107000  0.29446000  1.0
  H  H117  1  0.15023000  0.65365000  0.28968000  1.0
  H  H118  1  0.17731000  0.65134000  0.34355000  1.0
  H  H119  1  0.13151000  0.61978000  0.37401000  1.0
  H  H120  1  0.95541000  0.68355000  0.22308000  1.0
  H  H121  1  0.86822000  0.70000000  0.14052000  1.0
  H  H122  1  0.93995000  0.68737000  0.11324000  1.0
  H  H123  1  0.01856000  0.67409000  0.14109000  1.0
  H  H124  1  0.00759000  0.62094000  0.16183000  1.0
  H  H125  1  0.98830000  0.61370000  0.10688000  1.0
  H  H126  1  0.04953000  0.59005000  0.07633000  1.0
  H  H127  1  0.14878000  0.58429000  0.15652000  1.0
  H  H128  1  0.22872000  0.67793000  0.21198000  1.0
  H  H129  1  0.30085000  0.72906000  0.28911000  1.0
  H  H130  1  0.22344000  0.72980000  0.31153000  1.0
  H  H131  1  0.15086000  0.70397000  0.28564000  1.0
  H  H132  1  0.35584000  0.15679000  0.07152000  1.0
  H  H133  1  0.40933000  0.17400000  0.16277000  1.0
  H  H134  1  0.47590000  0.13836000  0.15768000  1.0
  H  H135  1  0.48242000  0.11017000  0.10945000  1.0
  H  H136  1  0.22443000  0.22134000  0.16877000  1.0
  H  H137  1  0.11499000  0.28920000  0.18041000  1.0
  H  H138  1  0.16952000  0.32537000  0.16079000  1.0
  H  H139  1  0.25059000  0.30910000  0.14566000  1.0
  H  H140  1  0.19027000  0.23387000  0.09328000  1.0
  H  H141  1  0.11903000  0.26548000  0.07939000  1.0
  H  H142  1  0.13206000  0.31449000  0.05998000  1.0
  H  H143  1  0.28878000  0.30030000  0.07239000  1.0
  H  H144  1  0.45708000  0.24182000  0.17818000  1.0
  H  H145  1  0.57093000  0.19031000  0.13856000  1.0
  H  H146  1  0.52344000  0.19127000  0.09030000  1.0
  H  H147  1  0.44128000  0.21274000  0.08637000  1.0
  H  H148  1  0.51616000  0.84890000  0.12532000  1.0
  H  H149  1  0.65301000  0.81165000  0.15272000  1.0
  H  H150  1  0.69548000  0.84296000  0.11988000  1.0
  H  H151  1  0.64752000  0.87840000  0.08953000  1.0
  H  H152  1  0.48042000  0.75334000  0.20743000  1.0
  H  H153  1  0.41946000  0.74187000  0.29116000  1.0
  H  H154  1  0.48854000  0.77089000  0.31735000  1.0
  H  H155  1  0.55338000  0.78976000  0.28900000  1.0
  H  H156  1  0.48254000  0.83520000  0.25813000  1.0
  H  H157  1  0.46633000  0.84842000  0.31055000  1.0
  H  H158  1  0.52796000  0.87788000  0.34429000  1.0
  H  H159  1  0.62080000  0.87908000  0.27252000  1.0
  H  H160  1  0.70541000  0.75960000  0.21491000  1.0
  H  H161  1  0.84328000  0.79023000  0.18778000  1.0
  H  H162  1  0.80399000  0.83741000  0.17568000  1.0
  H  H163  1  0.71798000  0.84601000  0.18437000  1.0
  H  H164  1  0.32438000  0.64347000  0.85565000  1.0
  H  H165  1  0.34861000  0.62396000  0.76510000  1.0
  H  H166  1  0.29654000  0.57875000  0.76246000  1.0
  H  H167  1  0.26094000  0.56420000  0.80763000  1.0
  H  H168  1  0.47169000  0.72847000  0.75354000  1.0
  H  H169  1  0.60758000  0.75497000  0.80597000  1.0
  H  H170  1  0.56203000  0.76150000  0.85045000  1.0
  H  H171  1  0.47315000  0.74934000  0.84641000  1.0
  H  H172  1  0.34900000  0.71990000  0.90579000  1.0
  H  H173  1  0.35830000  0.75919000  0.94726000  1.0
  H  H174  1  0.38859000  0.80912000  0.93790000  1.0
  H  H175  1  0.39746000  0.77930000  0.84551000  1.0
  H  H176  1  0.21905000  0.73413000  0.77634000  1.0
  H  H177  1  0.14899000  0.66958000  0.70999000  1.0
  H  H178  1  0.22612000  0.64182000  0.71102000  1.0
  H  H179  1  0.29758000  0.65956000  0.74454000  1.0
  H  H180  1  0.52249000  0.10578000  0.80281000  1.0
  H  H181  1  0.65836000  0.12233000  0.76946000  1.0
  H  H182  1  0.70195000  0.09161000  0.80675000  1.0
  H  H183  1  0.65491000  0.06526000  0.84112000  1.0
  H  H184  1  0.44173000  0.19215000  0.72440000  1.0
  H  H185  1  0.32961000  0.17625000  0.65048000  1.0
  H  H186  1  0.39068000  0.14925000  0.62225000  1.0
  H  H187  1  0.47627000  0.14432000  0.64537000  1.0
  H  H188  1  0.46799000  0.08262000  0.67064000  1.0
  H  H189  1  0.45079000  0.04588000  0.62800000  1.0
  H  H190  1  0.51368000  0.03510000  0.59372000  1.0
  H  H191  1  0.60525000  0.10452000  0.64188000  1.0
  H  H192  1  0.70054000  0.18665000  0.70326000  1.0
  H  H193  1  0.77371000  0.22427000  0.78703000  1.0
  H  H194  1  0.71056000  0.20148000  0.81332000  1.0
  H  H195  1  0.64167000  0.17375000  0.78481000  1.0
  H  H196  1  0.06779000  0.75407000  0.81456000  1.0
  H  H197  1  0.00929000  0.76025000  0.79452000  1.0
  H  H198  1  0.99378000  0.74648000  0.74196000  1.0
  H  H199  1  0.13436000  0.73156000  0.78997000  1.0
  H  H200  1  0.11558000  0.71544000  0.69465000  1.0
  H  H201  1  0.74967000  0.26006000  0.64796000  1.0
  H  H202  1  0.80837000  0.27790000  0.64899000  1.0
  H  H203  1  0.86955000  0.27428000  0.69061000  1.0
  H  H204  1  0.72883000  0.23156000  0.68819000  1.0
  H  H205  1  0.84025000  0.21730000  0.76011000  1.0
  H  H206  1  0.10086000  0.14853000  0.14815000  1.0
  H  H207  1  0.05879000  0.13918000  0.17412000  1.0
  H  H208  1  0.04208000  0.17343000  0.21531000  1.0
  H  H209  1  0.14232000  0.19626000  0.15245000  1.0
  H  H210  1  0.11506000  0.25891000  0.22549000  1.0
  H  H211  1  0.77572000  0.69541000  0.28018000  1.0
  H  H212  1  0.82201000  0.66823000  0.27417000  1.0
  H  H213  1  0.87209000  0.67015000  0.23320000  1.0
  H  H214  1  0.76193000  0.73604000  0.24833000  1.0
  H  H215  1  0.84789000  0.74065000  0.17359000  1.0
  H  H216  1  0.58920000  0.67641000  0.66481000  1.0
  H  H217  1  0.54203000  0.66666667  0.68729000  1.0
  H  H218  1  0.52879000  0.69552000  0.73258000  1.0
  H  H219  1  0.64055000  0.71961000  0.67796000  1.0
  H  H220  1  0.62010000  0.77277000  0.75898000  1.0
  H  H221  1  0.32975000  0.19448000  0.79419000  1.0
  H  H222  1  0.28303000  0.22212000  0.79632000  1.0
  H  H223  1  0.25481000  0.24920000  0.75377000  1.0
  H  H224  1  0.36569000  0.18212000  0.74829000  1.0
  H  H225  1  0.31557000  0.22800000  0.67021000  1.0
  H  H226  1  0.55644000  0.20695000  0.29253000  1.0
  H  H227  1  0.49770000  0.21353000  0.27297000  1.0
  H  H228  1  0.48805000  0.21708000  0.21954000  1.0
  H  H229  1  0.62947000  0.20147000  0.26661000  1.0
  H  H230  1  0.61867000  0.21648000  0.17323000  1.0
  H  H231  1  0.35699000  0.64675000  0.16727000  1.0
  H  H232  1  0.41697000  0.66228000  0.16619000  1.0
  H  H233  1  0.44685000  0.70338000  0.20011000  1.0
  H  H234  1  0.30329000  0.66596000  0.20253000  1.0
  H  H235  1  0.34806000  0.74537000  0.25786000  1.0
  C  C236  1  0.44382000  0.93151000  0.99499000  1.0
  C  C237  1  0.41645000  0.89455000  0.96294000  1.0
  C  C238  1  0.42973000  0.91906000  0.94820000  1.0
  C  C239  1  0.45208000  0.91605000  0.92089000  1.0
  C  C240  1  0.48441000  0.93789000  0.91210000  1.0
  C  C241  1  0.51494000  0.98875000  0.04505000  1.0
  C  C242  1  0.42599000  0.90249000  0.99293000  1.0
  C  C243  1  0.50319000  0.93722000  0.88460000  1.0
  C  C244  1  0.45171000  0.03866000  0.99705000  1.0
  C  C245  1  0.48455000  0.01716000  0.00950000  1.0
  C  C246  1  0.43139000  0.03652000  0.96678000  1.0
  C  C247  1  0.43350000  0.05425000  0.92250000  1.0
  C  C248  1  0.44901000  0.02488000  0.92224000  1.0
  C  C249  1  0.48416000  0.01279000  0.90347000  1.0
  C  C250  1  0.50194000  0.98326000  0.90489000  1.0
  C  C251  1  0.50334000  0.01776000  0.03930000  1.0
  C  C252  1  0.42129000  0.06158000  0.95096000  1.0
  C  C253  1  0.51566000  0.96623000  0.88027000  1.0
  C  C254  1  0.47971000  0.94285000  0.01822000  1.0
  C  C255  1  0.50059000  0.97179000  0.01877000  1.0
  C  C256  1  0.17725000  0.42446000  0.98438000  1.0
  C  C257  1  0.13754000  0.40400000  0.94282000  1.0
  C  C258  1  0.15860000  0.43109000  0.93793000  1.0
  C  C259  1  0.17671000  0.43704000  0.91051000  1.0
  C  C260  1  0.21579000  0.45752000  0.90841000  1.0
  C  C261  1  0.26040000  0.45546000  0.04947000  1.0
  C  C262  1  0.15004000  0.39959000  0.97254000  1.0
  C  C263  1  0.23027000  0.46568000  0.88144000  1.0
  C  C264  1  0.21024000  0.52295000  0.02537000  1.0
  C  C265  1  0.23977000  0.49697000  0.02794000  1.0
  C  C266  1  0.19243000  0.53361000  0.99756000  1.0
  C  C267  1  0.19566000  0.56664000  0.96368000  1.0
  C  C268  1  0.20456000  0.53820000  0.95168000  1.0
  C  C269  1  0.23091000  0.53175000  0.92639000  1.0
  C  C270  1  0.24310000  0.50224000  0.91649000  1.0
  C  C271  1  0.25631000  0.48576000  0.05501000  1.0
  C  C272  1  0.18690000  0.56365000  0.99295000  1.0
  C  C273  1  0.24851000  0.49421000  0.88669000  1.0
  C  C274  1  0.21327000  0.42442000  0.00956000  1.0
  C  C275  1  0.24352000  0.44963000  0.01957000  1.0
  C  C276  1  0.68698000  0.92654000  0.47771000  1.0
  C  C277  1  0.65776000  0.90735000  0.43308000  1.0
  C  C278  1  0.67467000  0.93626000  0.43169000  1.0
  C  C279  1  0.69567000  0.94542000  0.40644000  1.0
  C  C280  1  0.73403000  0.96701000  0.40823000  1.0
  C  C281  1  0.73399000  0.95847000  0.55209000  1.0
  C  C282  1  0.66756000  0.90080000  0.46226000  1.0
  C  C283  1  0.75275000  0.97667000  0.38309000  1.0
  C  C284  1  0.69156000  0.02706000  0.52464000  1.0
  C  C285  1  0.71817000  0.00043000  0.53032000  1.0
  C  C286  1  0.68945000  0.03950000  0.49680000  1.0
  C  C287  1  0.70375000  0.07410000  0.46651000  1.0
  C  C288  1  0.71408000  0.04603000  0.45400000  1.0
  C  C289  1  0.74219000  0.04098000  0.42939000  1.0
  C  C290  1  0.75737000  0.01203000  0.41957000  1.0
  C  C291  1  0.72219000  0.98763000  0.55762000  1.0
  C  C292  1  0.68721000  0.06987000  0.49364000  1.0
  C  C293  1  0.76824000  0.00537000  0.39040000  1.0
  C  C294  1  0.71388000  0.92719000  0.50643000  1.0
  C  C295  1  0.73317000  0.95405000  0.52130000  1.0
  C  C296  1  0.93367000  0.44480000  0.50510000  1.0
  C  C297  1  0.89720000  0.41173000  0.47168000  1.0
  C  C298  1  0.91695000  0.43520000  0.45813000  1.0
  C  C299  1  0.94154000  0.43106000  0.43175000  1.0
  C  C300  1  0.97684000  0.45179000  0.42385000  1.0
  C  C301  1  0.97503000  0.49740000  0.56073000  1.0
  C  C302  1  0.90782000  0.41804000  0.50204000  1.0
  C  C303  1  0.99503000  0.45080000  0.39607000  1.0
  C  C304  1  0.93553000  0.55112000  0.50990000  1.0
  C  C305  1  0.96186000  0.52843000  0.52514000  1.0
  C  C306  1  0.92844000  0.55120000  0.47848000  1.0
  C  C307  1  0.94538000  0.57085000  0.43722000  1.0
  C  C308  1  0.95697000  0.54077000  0.43622000  1.0
  C  C309  1  0.98993000  0.52682000  0.41704000  1.0
  C  C310  1  0.00126000  0.49614000  0.41773000  1.0
  C  C311  1  0.96333000  0.52630000  0.55572000  1.0
  C  C312  1  0.92536000  0.57722000  0.46363000  1.0
  C  C313  1  0.01135000  0.47902000  0.39237000  1.0
  C  C314  1  0.97389000  0.45252000  0.52748000  1.0
  C  C315  1  0.98377000  0.48320000  0.53349000  1.0
  C  C316  1  0.75230000  0.80332000  0.58516000  1.0
  C  C317  1  0.97167000  0.73908000  0.68009000  1.0
  C  C318  1  0.01636000  0.72370000  0.68622000  1.0
  C  C319  1  0.02789000  0.70082000  0.66517000  1.0
  C  C320  1  0.99790000  0.69499000  0.63875000  1.0
  C  C321  1  0.95494000  0.71106000  0.63354000  1.0
  C  C322  1  0.85870000  0.66151000  0.60619000  1.0
  C  C323  1  0.89047000  0.63745000  0.60070000  1.0
  C  C324  1  0.91875000  0.62600000  0.62494000  1.0
  C  C325  1  0.91448000  0.63772000  0.65383000  1.0
  C  C326  1  0.88223000  0.66108000  0.65841000  1.0
  C  C327  1  0.71748000  0.75856000  0.69796000  1.0
  C  C328  1  0.67602000  0.76914000  0.71175000  1.0
  C  C329  1  0.67265000  0.80003000  0.71850000  1.0
  C  C330  1  0.70933000  0.81929000  0.71163000  1.0
  C  C331  1  0.74902000  0.80778000  0.69756000  1.0
  C  C332  1  0.71287000  0.78556000  0.62520000  1.0
  C  C333  1  0.68489000  0.81124000  0.62724000  1.0
  C  C334  1  0.69121000  0.83350000  0.60796000  1.0
  C  C335  1  0.72257000  0.82910000  0.58512000  1.0
  C  C336  1  0.06731000  0.36806000  0.78324000  1.0
  C  C337  1  0.20347000  0.27214000  0.70436000  1.0
  C  C338  1  0.25105000  0.26552000  0.69630000  1.0
  C  C339  1  0.27091000  0.28365000  0.67616000  1.0
  C  C340  1  0.24435000  0.30772000  0.66525000  1.0
  C  C341  1  0.19831000  0.31399000  0.67483000  1.0
  C  C342  1  0.04056000  0.34895000  0.62618000  1.0
  C  C343  1  0.05955000  0.35834000  0.60039000  1.0
  C  C344  1  0.10045000  0.34354000  0.59019000  1.0
  C  C345  1  0.12003000  0.31919000  0.60461000  1.0
  C  C346  1  0.09903000  0.30998000  0.62945000  1.0
  C  C347  1  0.95045000  0.26452000  0.73086000  1.0
  C  C348  1  0.90907000  0.25625000  0.74511000  1.0
  C  C349  1  0.91372000  0.25794000  0.77665000  1.0
  C  C350  1  0.95805000  0.26662000  0.79289000  1.0
  C  C351  1  0.99764000  0.27433000  0.77775000  1.0
  C  C352  1  0.98865000  0.34515000  0.77193000  1.0
  C  C353  1  0.97796000  0.35076000  0.80140000  1.0
  C  C354  1  0.01261000  0.36554000  0.82201000  1.0
  C  C355  1  0.05765000  0.37470000  0.81303000  1.0
  C  C356  1  0.89262000  0.30420000  0.34267000  1.0
  C  C357  1  0.71945000  0.20926000  0.23929000  1.0
  C  C358  1  0.68200000  0.19881000  0.21743000  1.0
  C  C359  1  0.69527000  0.18096000  0.19270000  1.0
  C  C360  1  0.74449000  0.17506000  0.18954000  1.0
  C  C361  1  0.78038000  0.18683000  0.21121000  1.0
  C  C362  1  0.80105000  0.15059000  0.34064000  1.0
  C  C363  1  0.76821000  0.12639000  0.34164000  1.0
  C  C364  1  0.74024000  0.11620000  0.31501000  1.0
  C  C365  1  0.74392000  0.13014000  0.28879000  1.0
  C  C366  1  0.77740000  0.15336000  0.28877000  1.0
  C  C367  1  0.99926000  0.22089000  0.24997000  1.0
  C  C368  1  0.05037000  0.22478000  0.25057000  1.0
  C  C369  1  0.07668000  0.23593000  0.27738000  1.0
  C  C370  1  0.05216000  0.24224000  0.30283000  1.0
  C  C371  1  0.00138000  0.23773000  0.30119000  1.0
  C  C372  1  0.92056000  0.29162000  0.29527000  1.0
  C  C373  1  0.94412000  0.31908000  0.29550000  1.0
  C  C374  1  0.94193000  0.33941000  0.31988000  1.0
  C  C375  1  0.91659000  0.33203000  0.34397000  1.0
  C  C376  1  0.11432000  0.59115000  0.14512000  1.0
  C  C377  1  0.22930000  0.68918000  0.23394000  1.0
  C  C378  1  0.27201000  0.70447000  0.24755000  1.0
  C  C379  1  0.26928000  0.71844000  0.27634000  1.0
  C  C380  1  0.22545000  0.71858000  0.28966000  1.0
  C  C381  1  0.18445000  0.70375000  0.27494000  1.0
  C  C382  1  0.06754000  0.60425000  0.30586000  1.0
  C  C383  1  0.08187000  0.60149000  0.33655000  1.0
  C  C384  1  0.12057000  0.61987000  0.35023000  1.0
  C  C385  1  0.14632000  0.63808000  0.33324000  1.0
  C  C386  1  0.13100000  0.63961000  0.30298000  1.0
  C  C387  1  0.95084000  0.68397000  0.19899000  1.0
  C  C388  1  0.90598000  0.69319000  0.18426000  1.0
  C  C389  1  0.90218000  0.69369000  0.15293000  1.0
  C  C390  1  0.94257000  0.68651000  0.13731000  1.0
  C  C391  1  0.98669000  0.67878000  0.15302000  1.0
  C  C392  1  0.03501000  0.61201000  0.14812000  1.0
  C  C393  1  0.02389000  0.60750000  0.11731000  1.0
  C  C394  1  0.05863000  0.59421000  0.10023000  1.0
  C  C395  1  0.10382000  0.58489000  0.11409000  1.0
  C  C396  1  0.25131000  0.29302000  0.07357000  1.0
  C  C397  1  0.47245000  0.23053000  0.15932000  1.0
  C  C398  1  0.51918000  0.21696000  0.16284000  1.0
  C  C399  1  0.53668000  0.20241000  0.13734000  1.0
  C  C400  1  0.50945000  0.20222000  0.10973000  1.0
  C  C401  1  0.46338000  0.21515000  0.10754000  1.0
  C  C402  1  0.38265000  0.15286000  0.09014000  1.0
  C  C403  1  0.41968000  0.13141000  0.08673000  1.0
  C  C404  1  0.45375000  0.12664000  0.11126000  1.0
  C  C405  1  0.45004000  0.14228000  0.13855000  1.0
  C  C406  1  0.41219000  0.16265000  0.14124000  1.0
  C  C407  1  0.21154000  0.24399000  0.16719000  1.0
  C  C408  1  0.16536000  0.25225000  0.17630000  1.0
  C  C409  1  0.15048000  0.28197000  0.17401000  1.0
  C  C410  1  0.18106000  0.30252000  0.16285000  1.0
  C  C411  1  0.22662000  0.29333000  0.15432000  1.0
  C  C412  1  0.19624000  0.25560000  0.08537000  1.0
  C  C413  1  0.15598000  0.27339000  0.07760000  1.0
  C  C414  1  0.16366000  0.30119000  0.06691000  1.0
  C  C415  1  0.21164000  0.31174000  0.06516000  1.0
  C  C416  1  0.58723000  0.87245000  0.28118000  1.0
  C  C417  1  0.72781000  0.77632000  0.20642000  1.0
  C  C418  1  0.77747000  0.77047000  0.20202000  1.0
  C  C419  1  0.80475000  0.79306000  0.19088000  1.0
  C  C420  1  0.78294000  0.82007000  0.18428000  1.0
  C  C421  1  0.73412000  0.82488000  0.18938000  1.0
  C  C422  1  0.55548000  0.84844000  0.12413000  1.0
  C  C423  1  0.57734000  0.86566000  0.10385000  1.0
  C  C424  1  0.62878000  0.86464000  0.10379000  1.0
  C  C425  1  0.65620000  0.84481000  0.12099000  1.0
  C  C426  1  0.63254000  0.82747000  0.13975000  1.0
  C  C427  1  0.48133000  0.75682000  0.23149000  1.0
  C  C428  1  0.44346000  0.74531000  0.24684000  1.0
  C  C429  1  0.44667000  0.75076000  0.27814000  1.0
  C  C430  1  0.48604000  0.76688000  0.29327000  1.0
  C  C431  1  0.52261000  0.77739000  0.27724000  1.0
  C  C432  1  0.50954000  0.84788000  0.27303000  1.0
  C  C433  1  0.50033000  0.85533000  0.30251000  1.0
  C  C434  1  0.53526000  0.87188000  0.32146000  1.0
  C  C435  1  0.57909000  0.88098000  0.31082000  1.0
  C  C436  1  0.38918000  0.77524000  0.86790000  1.0
  C  C437  1  0.21979000  0.71405000  0.76175000  1.0
  C  C438  1  0.17767000  0.70471000  0.74269000  1.0
  C  C439  1  0.18059000  0.67828000  0.72439000  1.0
  C  C440  1  0.22400000  0.66223000  0.72501000  1.0
  C  C441  1  0.26450000  0.67236000  0.74411000  1.0
  C  C442  1  0.31707000  0.62938000  0.83525000  1.0
  C  C443  1  0.28960000  0.60285000  0.83522000  1.0
  C  C444  1  0.28149000  0.58493000  0.80846000  1.0
  C  C445  1  0.30174000  0.59292000  0.78293000  1.0
  C  C446  1  0.33043000  0.61871000  0.78434000  1.0
  C  C447  1  0.49241000  0.73560000  0.77452000  1.0
  C  C448  1  0.54348000  0.74096000  0.77583000  1.0
  C  C449  1  0.56831000  0.75082000  0.80360000  1.0
  C  C450  1  0.54279000  0.75439000  0.82897000  1.0
  C  C451  1  0.49258000  0.74783000  0.82663000  1.0
  C  C452  1  0.36193000  0.74190000  0.90181000  1.0
  C  C453  1  0.36714000  0.76391000  0.92513000  1.0
  C  C454  1  0.38414000  0.79200000  0.91970000  1.0
  C  C455  1  0.39555000  0.79796000  0.89098000  1.0
  C  C456  1  0.57209000  0.09112000  0.63842000  1.0
  C  C457  1  0.70359000  0.19032000  0.72734000  1.0
  C  C458  1  0.74309000  0.20724000  0.74265000  1.0
  C  C459  1  0.74517000  0.21092000  0.77405000  1.0
  C  C460  1  0.70912000  0.19837000  0.78919000  1.0
  C  C461  1  0.67034000  0.18260000  0.77301000  1.0
  C  C462  1  0.56191000  0.10267000  0.80431000  1.0
  C  C463  1  0.58482000  0.08391000  0.82516000  1.0
  C  C464  1  0.63586000  0.07994000  0.82580000  1.0
  C  C465  1  0.66260000  0.09462000  0.80630000  1.0
  C  C466  1  0.63790000  0.11219000  0.78535000  1.0
  C  C467  1  0.42953000  0.18261000  0.70222000  1.0
  C  C468  1  0.38067000  0.18635000  0.68993000  1.0
  C  C469  1  0.36688000  0.17412000  0.66076000  1.0
  C  C470  1  0.40119000  0.15874000  0.64471000  1.0
  C  C471  1  0.44926000  0.15583000  0.65779000  1.0
  C  C472  1  0.49476000  0.07932000  0.65472000  1.0
  C  C473  1  0.48495000  0.05845000  0.63072000  1.0
  C  C474  1  0.52055000  0.05282000  0.61115000  1.0
  C  C475  1  0.56404000  0.07007000  0.61369000  1.0
  C  C476  1  0.13002000  0.72090000  0.74229000  1.0
  C  C477  1  0.09992000  0.72194000  0.71523000  1.0
  C  C478  1  0.04986000  0.72965000  0.71454000  1.0
  C  C479  1  0.06306000  0.74231000  0.76847000  1.0
  C  C480  1  0.03204000  0.74043000  0.74148000  1.0
  C  C481  1  0.11169000  0.73200000  0.76884000  1.0
  C  C482  1  0.77989000  0.22281000  0.72646000  1.0
  C  C483  1  0.82827000  0.22799000  0.73986000  1.0
  C  C484  1  0.86092000  0.24722000  0.72784000  1.0
  C  C485  1  0.79875000  0.25270000  0.68561000  1.0
  C  C486  1  0.84572000  0.25917000  0.70034000  1.0
  C  C487  1  0.76588000  0.23493000  0.69893000  1.0
  C  C488  1  0.13264000  0.23014000  0.18769000  1.0
  C  C489  1  0.10859000  0.23736000  0.21343000  1.0
  C  C490  1  0.07584000  0.21705000  0.22353000  1.0
  C  C491  1  0.09150000  0.18158000  0.18222000  1.0
  C  C492  1  0.06724000  0.18927000  0.20767000  1.0
  C  C493  1  0.12423000  0.20204000  0.17240000  1.0
  C  C494  1  0.80153000  0.74174000  0.20976000  1.0
  C  C495  1  0.83857000  0.72970000  0.19298000  1.0
  C  C496  1  0.86478000  0.70414000  0.20135000  1.0
  C  C497  1  0.81494000  0.70118000  0.24317000  1.0
  C  C498  1  0.85256000  0.68999000  0.22654000  1.0
  C  C499  1  0.78975000  0.72703000  0.23477000  1.0
  C  C500  1  0.63579000  0.74853000  0.71798000  1.0
  C  C501  1  0.60990000  0.75390000  0.74341000  1.0
  C  C502  1  0.57071000  0.73521000  0.74883000  1.0
  C  C503  1  0.58344000  0.70484000  0.70320000  1.0
  C  C504  1  0.55805000  0.71060000  0.72855000  1.0
  C  C505  1  0.62200000  0.72386000  0.69799000  1.0
  C  C506  1  0.34478000  0.20318000  0.70721000  1.0
  C  C507  1  0.31364000  0.22436000  0.69360000  1.0
  C  C508  1  0.28093000  0.24128000  0.71010000  1.0
  C  C509  1  0.30931000  0.21478000  0.75422000  1.0
  C  C510  1  0.27897000  0.23611000  0.74046000  1.0
  C  C511  1  0.34224000  0.19854000  0.73757000  1.0
  C  C512  1  0.62962000  0.20701000  0.21934000  1.0
  C  C513  1  0.60070000  0.21388000  0.19328000  1.0
  C  C514  1  0.54928000  0.21633000  0.19242000  1.0
  C  C515  1  0.55666000  0.21106000  0.24640000  1.0
  C  C516  1  0.52757000  0.21540000  0.21942000  1.0
  C  C517  1  0.60754000  0.20639000  0.24614000  1.0
  C  C518  1  0.31915000  0.70530000  0.23269000  1.0
  C  C519  1  0.35552000  0.72730000  0.24195000  1.0
  C  C520  1  0.40245000  0.72618000  0.23146000  1.0
  C  C521  1  0.37462000  0.68359000  0.19761000  1.0
  C  C522  1  0.41112000  0.70464000  0.20862000  1.0
  C  C523  1  0.32948000  0.68356000  0.21015000  1.0
  C  C524  1  0.50670000  0.03267000  0.88328000  1.0
  C  C525  1  0.54525000  0.05211000  0.89523000  1.0
  C  C526  1  0.56861000  0.07013000  0.87649000  1.0
  C  C527  1  0.51674000  0.04810000  0.83337000  1.0
  C  C528  1  0.49103000  0.03176000  0.85252000  1.0
  C  C529  1  0.55583000  0.06749000  0.84525000  1.0
  C  C530  1  0.43928000  0.06508000  0.01656000  1.0
  C  C531  1  0.47133000  0.08981000  0.02128000  1.0
  C  C532  1  0.46230000  0.11310000  0.04236000  1.0
  C  C533  1  0.38785000  0.08768000  0.05307000  1.0
  C  C534  1  0.39669000  0.06450000  0.03176000  1.0
  C  C535  1  0.42149000  0.11166000  0.05914000  1.0
  C  C536  1  0.50137000  0.92205000  0.04049000  1.0
  C  C537  1  0.53536000  0.90068000  0.03133000  1.0
  C  C538  1  0.55618000  0.88058000  0.05140000  1.0
  C  C539  1  0.51340000  0.90517000  0.09115000  1.0
  C  C540  1  0.48844000  0.92312000  0.07006000  1.0
  C  C541  1  0.54781000  0.88374000  0.08196000  1.0
  C  C542  1  0.44318000  0.88744000  0.90226000  1.0
  C  C543  1  0.47850000  0.86462000  0.90408000  1.0
  C  C544  1  0.46410000  0.83488000  0.89621000  1.0
  C  C545  1  0.38104000  0.85109000  0.88080000  1.0
  C  C546  1  0.39544000  0.88086000  0.88849000  1.0
  C  C547  1  0.41454000  0.82795000  0.88660000  1.0
  C  C548  1  0.15084000  0.42242000  0.88259000  1.0
  C  C549  1  0.10931000  0.43630000  0.86870000  1.0
  C  C550  1  0.08049000  0.42127000  0.84477000  1.0
  C  C551  1  0.13602000  0.37891000  0.84746000  1.0
  C  C552  1  0.16520000  0.39416000  0.87127000  1.0
  C  C553  1  0.09277000  0.39211000  0.83471000  1.0
  C  C554  1  0.74990000  0.06662000  0.41044000  1.0
  C  C555  1  0.79778000  0.07575000  0.40563000  1.0
  C  C556  1  0.80466000  0.09632000  0.38405000  1.0
  C  C557  1  0.71607000  0.10365000  0.37695000  1.0
  C  C558  1  0.70901000  0.08071000  0.39579000  1.0
  C  C559  1  0.76357000  0.11004000  0.36905000  1.0
  C  C560  1  0.18885000  0.53653000  0.05226000  1.0
  C  C561  1  0.14449000  0.52453000  0.05988000  1.0
  C  C562  1  0.11922000  0.53911000  0.08216000  1.0
  C  C563  1  0.18277000  0.57775000  0.08980000  1.0
  C  C564  1  0.20917000  0.56239000  0.06823000  1.0
  C  C565  1  0.13680000  0.56663000  0.09607000  1.0
  C  C566  1  0.71645000  0.89950000  0.52367000  1.0
  C  C567  1  0.67316000  0.88624000  0.53156000  1.0
  C  C568  1  0.67587000  0.86087000  0.54820000  1.0
  C  C569  1  0.76523000  0.86501000  0.55440000  1.0
  C  C570  1  0.76251000  0.88801000  0.53443000  1.0
  C  C571  1  0.72174000  0.85120000  0.56157000  1.0
  C  C572  1  0.01270000  0.54447000  0.39459000  1.0
  C  C573  1  0.98348000  0.55889000  0.37230000  1.0
  C  C574  1  0.00533000  0.57837000  0.35407000  1.0
  C  C575  1  0.08625000  0.56217000  0.37415000  1.0
  C  C576  1  0.06441000  0.54625000  0.39528000  1.0
  C  C577  1  0.05726000  0.58013000  0.35468000  1.0
  C  C578  1  0.91848000  0.57738000  0.52809000  1.0
  C  C579  1  0.95019000  0.60193000  0.53613000  1.0
  C  C580  1  0.93697000  0.62458000  0.55676000  1.0
  C  C581  1  0.85996000  0.59870000  0.56094000  1.0
  C  C582  1  0.87222000  0.57662000  0.53933000  1.0
  C  C583  1  0.89343000  0.62202000  0.57080000  1.0
  C  C584  1  0.00176000  0.42896000  0.54609000  1.0
  C  C585  1  0.03176000  0.43557000  0.57370000  1.0
  C  C586  1  0.04567000  0.41262000  0.59281000  1.0
  C  C587  1  0.01570000  0.37582000  0.55363000  1.0
  C  C588  1  0.00293000  0.39877000  0.53475000  1.0
  C  C589  1  0.03662000  0.38259000  0.58304000  1.0
  C  C590  1  0.93244000  0.40290000  0.41223000  1.0
  C  C591  1  0.97086000  0.38225000  0.40887000  1.0
  C  C592  1  0.96356000  0.35729000  0.38851000  1.0
  C  C593  1  0.87959000  0.37296000  0.37460000  1.0
  C  C594  1  0.88636000  0.39770000  0.39549000  1.0
  C  C595  1  0.91863000  0.35321000  0.37055000  1.0
  C  C596  1  0.67363000  0.93233000  0.37676000  1.0
  C  C597  1  0.69020000  0.90489000  0.36469000  1.0
  C  C598  1  0.66058000  0.88854000  0.34185000  1.0
  C  C599  1  0.60116000  0.92894000  0.34049000  1.0
  C  C600  1  0.63031000  0.94496000  0.36362000  1.0
  C  C601  1  0.61485000  0.90000000  0.33060000  1.0
  C  C602  1  0.24401000  0.55643000  0.90788000  1.0
  C  C603  1  0.29369000  0.56486000  0.90798000  1.0
  C  C604  1  0.30844000  0.58221000  0.88551000  1.0
  C  C605  1  0.22293000  0.58579000  0.86483000  1.0
  C  C606  1  0.20837000  0.56792000  0.88697000  1.0
  C  C607  1  0.27328000  0.59172000  0.86304000  1.0
  C  C608  1  0.66117000  0.04186000  0.54741000  1.0
  C  C609  1  0.68190000  0.05250000  0.57611000  1.0
  C  C610  1  0.65101000  0.06113000  0.59844000  1.0
  C  C611  1  0.58132000  0.06006000  0.56030000  1.0
  C  C612  1  0.61029000  0.04594000  0.53967000  1.0
  C  C613  1  0.59979000  0.06475000  0.59072000  1.0
  C  C614  1  0.21831000  0.39672000  0.02632000  1.0
  C  C615  1  0.24445000  0.37227000  0.01479000  1.0
  C  C616  1  0.24367000  0.34464000  0.02780000  1.0
  C  C617  1  0.19592000  0.36692000  0.06637000  1.0
  C  C618  1  0.19381000  0.39384000  0.05209000  1.0
  C  C619  1  0.21885000  0.34164000  0.05357000  1.0
  Br  Br620  1  0.73904000  0.70336000  0.60822000  1.0
  Br  Br621  1  0.84422000  0.72518000  0.69555000  1.0
  Br  Br622  1  0.87404000  0.80131000  0.66845000  1.0
  Br  Br623  1  0.86821000  0.75238000  0.59072000  1.0
  Br  Br624  1  0.96669000  0.34443000  0.68895000  1.0
  Br  Br625  1  0.06409000  0.26019000  0.68258000  1.0
  Br  Br626  1  0.12678000  0.29123000  0.76198000  1.0
  Br  Br627  1  0.12148000  0.36377000  0.70996000  1.0
  Br  Br628  1  0.89321000  0.21531000  0.35711000  1.0
  Br  Br629  1  0.88407000  0.17241000  0.26012000  1.0
  Br  Br630  1  0.86131000  0.25147000  0.23104000  1.0
  Br  Br631  1  0.77530000  0.25067000  0.30209000  1.0
  Br  Br632  1  0.02303000  0.58887000  0.22649000  1.0
  Br  Br633  1  0.05885000  0.68969000  0.25448000  1.0
  Br  Br634  1  0.12194000  0.68667000  0.17861000  1.0
  Br  Br635  1  0.17521000  0.61411000  0.22476000  1.0
  Br  Br636  1  0.25976000  0.18598000  0.08317000  1.0
  Br  Br637  1  0.34441000  0.21803000  0.17483000  1.0
  Br  Br638  1  0.36726000  0.29478000  0.14880000  1.0
  Br  Br639  1  0.36913000  0.25174000  0.07040000  1.0
  Br  Br640  1  0.48535000  0.84156000  0.18882000  1.0
  Br  Br641  1  0.59590000  0.76341000  0.18163000  1.0
  Br  Br642  1  0.64901000  0.79646000  0.26308000  1.0
  Br  Br643  1  0.63611000  0.86858000  0.20865000  1.0
  Br  Br644  1  0.42599000  0.67597000  0.86091000  1.0
  Br  Br645  1  0.38876000  0.68528000  0.76012000  1.0
  Br  Br646  1  0.33570000  0.76403000  0.78224000  1.0
  Br  Br647  1  0.27662000  0.70429000  0.83719000  1.0
  Br  Br648  1  0.49836000  0.08907000  0.73150000  1.0
  Br  Br649  1  0.54621000  0.18591000  0.75369000  1.0
  Br  Br650  1  0.59287000  0.18411000  0.67332000  1.0
  Br  Br651  1  0.64765000  0.10733000  0.70844000  1.0
  N  N652  1  0.43616000  0.94305000  0.96788000  1.0
  N  N653  1  0.43845000  0.01288000  0.94767000  1.0
  N  N654  1  0.49155000  0.98988000  0.99627000  1.0
  N  N655  1  0.49165000  0.96526000  0.92613000  1.0
  N  N656  1  0.17426000  0.44557000  0.96427000  1.0
  N  N657  1  0.19481000  0.51800000  0.97125000  1.0
  N  N658  1  0.24162000  0.47535000  0.00559000  1.0
  N  N659  1  0.23263000  0.47781000  0.93068000  1.0
  N  N660  1  0.68442000  0.94939000  0.45940000  1.0
  N  N661  1  0.69971000  0.02472000  0.47124000  1.0
  N  N662  1  0.73254000  0.98062000  0.50866000  1.0
  N  N663  1  0.74574000  0.98666000  0.43219000  1.0
  N  N664  1  0.92758000  0.45798000  0.47872000  1.0
  N  N665  1  0.94022000  0.52818000  0.45988000  1.0
  N  N666  1  0.97930000  0.50302000  0.51199000  1.0
  N  N667  1  0.98823000  0.47845000  0.43878000  1.0
  N  N668  1  0.85590000  0.67317000  0.63487000  1.0
  N  N669  1  0.75216000  0.77798000  0.69071000  1.0
  N  N670  1  0.74825000  0.78301000  0.60611000  1.0
  N  N671  1  0.94175000  0.73200000  0.65438000  1.0
  N  N672  1  0.06089000  0.32523000  0.64029000  1.0
  N  N673  1  0.99304000  0.27368000  0.74739000  1.0
  N  N674  1  0.03287000  0.35344000  0.76350000  1.0
  N  N675  1  0.17853000  0.29622000  0.69395000  1.0
  N  N676  1  0.80567000  0.16306000  0.31414000  1.0
  N  N677  1  0.97607000  0.22765000  0.27491000  1.0
  N  N678  1  0.89499000  0.28465000  0.31835000  1.0
  N  N679  1  0.76761000  0.20310000  0.23582000  1.0
  N  N680  1  0.09072000  0.62420000  0.29032000  1.0
  N  N681  1  0.98985000  0.67697000  0.18319000  1.0
  N  N682  1  0.08005000  0.60496000  0.16119000  1.0
  N  N683  1  0.18736000  0.68835000  0.24811000  1.0
  N  N684  1  0.37973000  0.16817000  0.11721000  1.0
  N  N685  1  0.24097000  0.26457000  0.15673000  1.0
  N  N686  1  0.24272000  0.26526000  0.08267000  1.0
  N  N687  1  0.44543000  0.22892000  0.13200000  1.0
  N  N688  1  0.58384000  0.83090000  0.14245000  1.0
  N  N689  1  0.51969000  0.77251000  0.24699000  1.0
  N  N690  1  0.55265000  0.85610000  0.26310000  1.0
  N  N691  1  0.70731000  0.80324000  0.20033000  1.0
  N  N692  1  0.33663000  0.63677000  0.80993000  1.0
  N  N693  1  0.46840000  0.73883000  0.79968000  1.0
  N  N694  1  0.37301000  0.74777000  0.87397000  1.0
  N  N695  1  0.26207000  0.69778000  0.76209000  1.0
  N  N696  1  0.58830000  0.11558000  0.78439000  1.0
  N  N697  1  0.46243000  0.16767000  0.68602000  1.0
  N  N698  1  0.53894000  0.09377000  0.65920000  1.0
  N  N699  1  0.66811000  0.17871000  0.74266000  1.0
  N  N700  1  0.04553000  0.75289000  0.79424000  1.0
  N  N701  1  0.78465000  0.26435000  0.65910000  1.0
  N  N702  1  0.08317000  0.15463000  0.16716000  1.0
  N  N703  1  0.80345000  0.68735000  0.26745000  1.0
  N  N704  1  0.57070000  0.68106000  0.68381000  1.0
  N  N705  1  0.30722000  0.21015000  0.78353000  1.0
  N  N706  1  0.53551000  0.21043000  0.27235000  1.0
  N  N707  1  0.38348000  0.66279000  0.17560000  1.0
  Cl  Cl708  1  0.56503000  0.05357000  0.93394000  1.0
  Cl  Cl709  1  0.61334000  0.09653000  0.89261000  1.0
  Cl  Cl710  1  0.43947000  0.00965000  0.83791000  1.0
  Cl  Cl711  1  0.50180000  0.04217000  0.79433000  1.0
  Cl  Cl712  1  0.52414000  0.09096000  0.00165000  1.0
  Cl  Cl713  1  0.50340000  0.14366000  0.04839000  1.0
  Cl  Cl714  1  0.35595000  0.03363000  0.02546000  1.0
  Cl  Cl715  1  0.33659000  0.08528000  0.07389000  1.0
  Cl  Cl716  1  0.55286000  0.89927000  0.99446000  1.0
  Cl  Cl717  1  0.59133000  0.85064000  0.03744000  1.0
  Cl  Cl718  1  0.44085000  0.94694000  0.08071000  1.0
  Cl  Cl719  1  0.50328000  0.91125000  0.12924000  1.0
  Cl  Cl720  1  0.53944000  0.87268000  0.91944000  1.0
  Cl  Cl721  1  0.50700000  0.80585000  0.90154000  1.0
  Cl  Cl722  1  0.35222000  0.90978000  0.88370000  1.0
  Cl  Cl723  1  0.31948000  0.84254000  0.86701000  1.0
  Cl  Cl724  1  0.09242000  0.47239000  0.88199000  1.0
  Cl  Cl725  1  0.02823000  0.43893000  0.82767000  1.0
  Cl  Cl726  1  0.21849000  0.37730000  0.88796000  1.0
  Cl  Cl727  1  0.15220000  0.34252000  0.83489000  1.0
  Cl  Cl728  1  0.84945000  0.06015000  0.42559000  1.0
  Cl  Cl729  1  0.86477000  0.10244000  0.37426000  1.0
  Cl  Cl730  1  0.64830000  0.06813000  0.39869000  1.0
  Cl  Cl731  1  0.66450000  0.12402000  0.36268000  1.0
  Cl  Cl732  1  0.11857000  0.49201000  0.04004000  1.0
  Cl  Cl733  1  0.06450000  0.52298000  0.09212000  1.0
  Cl  Cl734  1  0.26649000  0.57628000  0.06008000  1.0
  Cl  Cl735  1  0.20585000  0.61193000  0.10737000  1.0
  Cl  Cl736  1  0.61503000  0.90265000  0.52289000  1.0
  Cl  Cl737  1  0.62086000  0.84096000  0.55150000  1.0
  Cl  Cl738  1  0.81734000  0.90334000  0.52383000  1.0
  Cl  Cl739  1  0.82337000  0.85550000  0.57193000  1.0
  Cl  Cl740  1  0.91924000  0.55229000  0.36671000  1.0
  Cl  Cl741  1  0.96657000  0.60197000  0.33249000  1.0
  Cl  Cl742  1  0.10274000  0.52921000  0.42323000  1.0
  Cl  Cl743  1  0.15024000  0.55818000  0.37159000  1.0
  Cl  Cl744  1  0.00814000  0.60333000  0.52186000  1.0
  Cl  Cl745  1  0.97630000  0.65561000  0.56599000  1.0
  Cl  Cl746  1  0.83137000  0.54651000  0.52818000  1.0
  Cl  Cl747  1  0.80448000  0.59562000  0.57765000  1.0
  Cl  Cl748  1  0.06744000  0.46869000  0.58044000  1.0
  Cl  Cl749  1  0.07903000  0.42140000  0.62806000  1.0
  Cl  Cl750  1  0.00515000  0.38998000  0.49623000  1.0
  Cl  Cl751  1  0.00763000  0.33823000  0.53947000  1.0
  Cl  Cl752  1  0.03002000  0.38862000  0.42799000  1.0
  Cl  Cl753  1  0.01199000  0.33170000  0.38431000  1.0
  Cl  Cl754  1  0.83823000  0.42361000  0.39868000  1.0
  Cl  Cl755  1  0.82318000  0.36788000  0.35195000  1.0
  Cl  Cl756  1  0.74594000  0.88981000  0.38020000  1.0
  Cl  Cl757  1  0.67900000  0.85260000  0.32933000  1.0
  Cl  Cl758  1  0.61097000  0.98030000  0.37751000  1.0
  Cl  Cl759  1  0.54636000  0.94489000  0.32458000  1.0
  Cl  Cl760  1  0.33811000  0.55190000  0.93530000  1.0
  Cl  Cl761  1  0.37182000  0.58931000  0.88407000  1.0
  Cl  Cl762  1  0.14582000  0.55771000  0.88678000  1.0
  Cl  Cl763  1  0.17798000  0.59965000  0.83838000  1.0
  Cl  Cl764  1  0.74654000  0.05526000  0.58416000  1.0
  Cl  Cl765  1  0.67724000  0.06436000  0.63600000  1.0
  Cl  Cl766  1  0.58103000  0.03208000  0.50456000  1.0
  Cl  Cl767  1  0.52183000  0.07237000  0.54734000  1.0
  Cl  Cl768  1  0.27594000  0.37584000  0.98270000  1.0
  Cl  Cl769  1  0.27059000  0.31340000  0.00996000  1.0
  Cl  Cl770  1  0.15810000  0.42348000  0.06581000  1.0
  Cl  Cl771  1  0.16975000  0.36514000  0.10064000  1.0
