# generated using pymatgen
data_Ni6H179C204(N6O19)2
_symmetry_space_group_name_H-M   'P 1'
_cell_length_a   34.83920000
_cell_length_b   37.71350000
_cell_length_c   37.72550000
_cell_angle_alpha   90.54700000
_cell_angle_beta   95.16600000
_cell_angle_gamma   90.90800000
_symmetry_Int_Tables_number   1
_chemical_formula_structural   Ni6H179C204(N6O19)2
_chemical_formula_sum   'Ni12 H358 C408 N24 O76'
_cell_volume   49357.30220687
_cell_formula_units_Z   2
loop_
 _symmetry_equiv_pos_site_id
 _symmetry_equiv_pos_as_xyz
  1  'x, y, z'
loop_
 _atom_site_type_symbol
 _atom_site_label
 _atom_site_symmetry_multiplicity
 _atom_site_fract_x
 _atom_site_fract_y
 _atom_site_fract_z
 _atom_site_occupancy
  Ni  Ni0  1  0.98726000  0.14061000  0.84476000  1.0
  Ni  Ni1  1  0.98390000  0.16914000  0.76719000  1.0
  Ni  Ni2  1  0.01903000  0.21677000  0.83050000  1.0
  Ni  Ni3  1  0.48705000  0.36156000  0.34302000  1.0
  Ni  Ni4  1  0.46132000  0.34418000  0.26335000  1.0
  Ni  Ni5  1  0.49239000  0.28387000  0.31380000  1.0
  Ni  Ni6  1  0.97101000  0.86159000  0.16049000  1.0
  Ni  Ni7  1  0.97017000  0.81438000  0.22824000  1.0
  Ni  Ni8  1  0.96345000  0.77958000  0.15210000  1.0
  Ni  Ni9  1  0.48050000  0.64747000  0.65460000  1.0
  Ni  Ni10  1  0.49840000  0.72397000  0.68501000  1.0
  Ni  Ni11  1  0.46828000  0.66519000  0.73389000  1.0
  H  H12  1  0.65651000  0.80954000  0.83087000  1.0
  H  H13  1  0.74458000  0.83007000  0.75957000  1.0
  H  H14  1  0.66772000  0.74121000  0.74079000  1.0
  H  H15  1  0.72194000  0.77767000  0.72382000  1.0
  H  H16  1  0.66838000  0.86886000  0.83920000  1.0
  H  H17  1  0.70142000  0.84261000  0.86632000  1.0
  H  H18  1  0.66869000  0.96037000  0.80974000  1.0
  H  H19  1  0.64642000  0.92609000  0.83282000  1.0
  H  H20  1  0.75651000  0.00934000  0.92364000  1.0
  H  H21  1  0.67841000  0.91614000  0.79883000  1.0
  H  H22  1  0.80227000  0.98803000  0.92750000  1.0
  H  H23  1  0.78776000  0.00911000  0.88757000  1.0
  H  H24  1  0.75544000  0.84627000  0.91820000  1.0
  H  H25  1  0.76742000  0.84192000  0.87264000  1.0
  H  H26  1  0.80082000  0.86267000  0.90384000  1.0
  H  H27  1  0.80554000  0.99833000  0.00368000  1.0
  H  H28  1  0.72822000  0.02250000  0.86502000  1.0
  H  H29  1  0.81956000  0.93229000  0.93961000  1.0
  H  H30  1  0.79128000  0.89500000  0.95140000  1.0
  H  H31  1  0.78657000  0.88569000  0.00877000  1.0
  H  H32  1  0.68455000  0.00290000  0.85061000  1.0
  H  H33  1  0.75675000  0.06326000  0.80790000  1.0
  H  H34  1  0.85474000  0.94086000  0.09365000  1.0
  H  H35  1  0.86977000  0.02271000  0.79283000  1.0
  H  H36  1  0.84580000  0.96247000  0.80244000  1.0
  H  H37  1  0.77749000  0.95155000  0.81168000  1.0
  H  H38  1  0.84354000  0.99725000  0.06227000  1.0
  H  H39  1  0.18578000  0.28553000  0.68721000  1.0
  H  H40  1  0.13692000  0.38621000  0.65926000  1.0
  H  H41  1  0.06642000  0.30689000  0.70224000  1.0
  H  H42  1  0.07493000  0.36685000  0.67989000  1.0
  H  H43  1  0.19450000  0.31670000  0.61209000  1.0
  H  H44  1  0.17058000  0.35745000  0.60857000  1.0
  H  H45  1  0.29372000  0.29526000  0.59852000  1.0
  H  H46  1  0.24584000  0.29077000  0.57543000  1.0
  H  H47  1  0.35098000  0.42149000  0.57946000  1.0
  H  H48  1  0.25379000  0.29646000  0.62344000  1.0
  H  H49  1  0.33294000  0.40806000  0.53514000  1.0
  H  H50  1  0.31623000  0.44724000  0.55257000  1.0
  H  H51  1  0.20551000  0.45132000  0.61990000  1.0
  H  H52  1  0.17525000  0.41422000  0.61593000  1.0
  H  H53  1  0.20793000  0.42000000  0.65584000  1.0
  H  H54  1  0.27249000  0.51321000  0.52525000  1.0
  H  H55  1  0.31518000  0.35464000  0.52431000  1.0
  H  H56  1  0.30966000  0.46139000  0.61251000  1.0
  H  H57  1  0.26799000  0.46298000  0.63572000  1.0
  H  H58  1  0.28503000  0.52187000  0.63965000  1.0
  H  H59  1  0.30422000  0.31475000  0.54438000  1.0
  H  H60  1  0.35855000  0.30330000  0.50878000  1.0
  H  H61  1  0.32700000  0.60542000  0.57558000  1.0
  H  H62  1  0.47215000  0.34512000  0.49409000  1.0
  H  H63  1  0.47013000  0.38209000  0.54758000  1.0
  H  H64  1  0.41385000  0.37968000  0.58271000  1.0
  H  H65  1  0.30400000  0.57194000  0.52132000  1.0
  H  H66  1  0.65161000  0.22631000  0.15950000  1.0
  H  H67  1  0.70845000  0.15109000  0.22981000  1.0
  H  H68  1  0.61130000  0.20499000  0.26273000  1.0
  H  H69  1  0.66444000  0.16440000  0.27507000  1.0
  H  H70  1  0.75137000  0.21274000  0.17008000  1.0
  H  H71  1  0.75492000  0.17642000  0.19881000  1.0
  H  H72  1  0.77004000  0.22219000  0.07707000  1.0
  H  H73  1  0.79108000  0.23432000  0.12116000  1.0
  H  H74  1  0.86021000  0.11018000  0.07673000  1.0
  H  H75  1  0.74031000  0.22287000  0.11186000  1.0
  H  H76  1  0.83426000  0.07134000  0.08311000  1.0
  H  H77  1  0.81818000  0.09908000  0.04628000  1.0
  H  H78  1  0.76076000  0.07914000  0.18464000  1.0
  H  H79  1  0.76332000  0.12023000  0.20605000  1.0
  H  H80  1  0.71985000  0.10766000  0.17819000  1.0
  H  H81  1  0.75730000  0.99929000  0.10123000  1.0
  H  H82  1  0.84825000  0.16266000  0.05658000  1.0
  H  H83  1  0.77551000  0.05471000  0.09267000  1.0
  H  H84  1  0.74726000  0.05754000  0.12933000  1.0
  H  H85  1  0.84024000  0.01121000  0.19326000  1.0
  H  H86  1  0.83045000  0.20344000  0.06951000  1.0
  H  H87  1  0.85805000  0.20800000  0.01073000  1.0
  H  H88  1  0.79122000  0.90882000  0.16195000  1.0
  H  H89  1  0.84086000  0.16446000  0.90392000  1.0
  H  H90  1  0.78395000  0.13187000  0.91996000  1.0
  H  H91  1  0.76240000  0.13734000  0.98014000  1.0
  H  H92  1  0.75254000  0.93614000  0.11207000  1.0
  H  H93  1  0.12984000  0.66521000  0.30297000  1.0
  H  H94  1  0.14999000  0.71941000  0.40394000  1.0
  H  H95  1  0.09710000  0.77427000  0.31416000  1.0
  H  H96  1  0.11988000  0.77300000  0.37761000  1.0
  H  H97  1  0.17290000  0.62525000  0.33069000  1.0
  H  H98  1  0.20172000  0.66420000  0.33238000  1.0
  H  H99  1  0.19187000  0.54037000  0.37275000  1.0
  H  H100  1  0.19262000  0.56222000  0.33019000  1.0
  H  H101  1  0.34778000  0.59715000  0.42589000  1.0
  H  H102  1  0.16304000  0.57768000  0.36432000  1.0
  H  H103  1  0.31773000  0.58011000  0.45885000  1.0
  H  H104  1  0.32815000  0.55368000  0.42206000  1.0
  H  H105  1  0.22909000  0.69680000  0.42004000  1.0
  H  H106  1  0.27152000  0.70378000  0.39638000  1.0
  H  H107  1  0.22623000  0.70110000  0.37261000  1.0
  H  H108  1  0.40376000  0.65029000  0.40352000  1.0
  H  H109  1  0.29927000  0.53777000  0.37103000  1.0
  H  H110  1  0.31726000  0.64074000  0.46310000  1.0
  H  H111  1  0.29090000  0.67872000  0.45105000  1.0
  H  H112  1  0.34507000  0.70545000  0.48263000  1.0
  H  H113  1  0.25116000  0.52813000  0.35484000  1.0
  H  H114  1  0.28547000  0.47763000  0.35071000  1.0
  H  H115  1  0.46831000  0.69336000  0.49631000  1.0
  H  H116  1  0.34462000  0.39798000  0.41440000  1.0
  H  H117  1  0.32627000  0.42727000  0.46874000  1.0
  H  H118  1  0.28856000  0.48210000  0.46519000  1.0
  H  H119  1  0.46589000  0.66118000  0.43911000  1.0
  H  H120  1  0.78787000  0.69350000  0.29817000  1.0
  H  H121  1  0.82651000  0.71688000  0.40726000  1.0
  H  H122  1  0.90269000  0.73618000  0.32675000  1.0
  H  H123  1  0.88912000  0.73821000  0.38931000  1.0
  H  H124  1  0.78448000  0.63728000  0.35911000  1.0
  H  H125  1  0.79570000  0.65686000  0.40202000  1.0
  H  H126  1  0.68936000  0.61698000  0.31060000  1.0
  H  H127  1  0.73458000  0.59542000  0.32334000  1.0
  H  H128  1  0.60972000  0.59124000  0.40811000  1.0
  H  H129  1  0.73141000  0.64300000  0.31825000  1.0
  H  H130  1  0.64103000  0.56471000  0.43776000  1.0
  H  H131  1  0.62265000  0.60668000  0.45129000  1.0
  H  H132  1  0.76961000  0.66640000  0.46692000  1.0
  H  H133  1  0.76264000  0.69845000  0.43174000  1.0
  H  H134  1  0.72817000  0.69534000  0.46243000  1.0
  H  H135  1  0.66733000  0.54061000  0.51915000  1.0
  H  H136  1  0.64380000  0.55545000  0.37219000  1.0
  H  H137  1  0.65970000  0.64807000  0.47995000  1.0
  H  H138  1  0.71030000  0.65041000  0.49415000  1.0
  H  H139  1  0.67039000  0.65342000  0.54045000  1.0
  H  H140  1  0.67116000  0.56507000  0.33649000  1.0
  H  H141  1  0.61864000  0.53430000  0.30355000  1.0
  H  H142  1  0.62223000  0.58129000  0.61271000  1.0
  H  H143  1  0.49564000  0.52252000  0.30717000  1.0
  H  H144  1  0.49459000  0.57941000  0.33927000  1.0
  H  H145  1  0.55462000  0.61426000  0.35369000  1.0
  H  H146  1  0.63685000  0.53096000  0.57476000  1.0
  H  H147  1  0.28505000  0.78823000  0.78937000  1.0
  H  H148  1  0.19458000  0.71194000  0.75828000  1.0
  H  H149  1  0.29913000  0.70922000  0.70807000  1.0
  H  H150  1  0.23446000  0.68549000  0.71544000  1.0
  H  H151  1  0.17202000  0.78271000  0.76275000  1.0
  H  H152  1  0.16131000  0.74683000  0.79092000  1.0
  H  H153  1  0.18474000  0.87838000  0.78250000  1.0
  H  H154  1  0.15629000  0.84831000  0.75262000  1.0
  H  H155  1  0.11879000  0.89534000  0.88772000  1.0
  H  H156  1  0.20304000  0.83648000  0.77383000  1.0
  H  H157  1  0.07244000  0.87321000  0.87900000  1.0
  H  H158  1  0.10748000  0.85958000  0.91447000  1.0
  H  H159  1  0.17998000  0.73749000  0.85039000  1.0
  H  H160  1  0.15629000  0.74541000  0.88859000  1.0
  H  H161  1  0.12856000  0.72905000  0.84850000  1.0
  H  H162  1  0.99410000  0.77373000  0.89144000  1.0
  H  H163  1  0.09664000  0.90265000  0.82623000  1.0
  H  H164  1  0.11590000  0.79751000  0.92274000  1.0
  H  H165  1  0.09562000  0.76209000  0.89445000  1.0
  H  H166  1  0.08299000  0.82285000  0.96201000  1.0
  H  H167  1  0.12260000  0.89712000  0.78840000  1.0
  H  H168  1  0.10507000  0.95648000  0.78912000  1.0
  H  H169  1  0.97402000  0.79163000  0.99977000  1.0
  H  H170  1  0.12379000  0.05279000  0.85145000  1.0
  H  H171  1  0.16791000  0.02167000  0.89409000  1.0
  H  H172  1  0.18217000  0.95866000  0.88502000  1.0
  H  H173  1  0.95280000  0.76815000  0.94086000  1.0
  H  H174  1  0.82249000  0.32401000  0.70696000  1.0
  H  H175  1  0.80031000  0.28143000  0.60101000  1.0
  H  H176  1  0.90663000  0.25868000  0.66138000  1.0
  H  H177  1  0.86303000  0.25162000  0.60691000  1.0
  H  H178  1  0.77961000  0.36670000  0.68175000  1.0
  H  H179  1  0.80347000  0.37032000  0.64272000  1.0
  H  H180  1  0.68279000  0.39131000  0.69918000  1.0
  H  H181  1  0.73183000  0.40837000  0.70597000  1.0
  H  H182  1  0.62383000  0.43053000  0.57917000  1.0
  H  H183  1  0.72056000  0.36151000  0.69854000  1.0
  H  H184  1  0.65879000  0.46691000  0.58145000  1.0
  H  H185  1  0.65517000  0.43838000  0.54465000  1.0
  H  H186  1  0.76903000  0.36724000  0.54758000  1.0
  H  H187  1  0.79642000  0.35677000  0.58697000  1.0
  H  H188  1  0.75696000  0.32759000  0.57105000  1.0
  H  H189  1  0.70410000  0.46495000  0.47967000  1.0
  H  H190  1  0.65430000  0.46488000  0.63847000  1.0
  H  H191  1  0.66286000  0.38169000  0.53176000  1.0
  H  H192  1  0.70388000  0.35484000  0.53140000  1.0
  H  H193  1  0.68328000  0.35200000  0.47309000  1.0
  H  H194  1  0.67311000  0.44693000  0.67890000  1.0
  H  H195  1  0.61814000  0.47622000  0.69796000  1.0
  H  H196  1  0.64707000  0.41868000  0.38477000  1.0
  H  H197  1  0.49838000  0.49189000  0.66228000  1.0
  H  H198  1  0.50038000  0.44170000  0.62074000  1.0
  H  H199  1  0.56002000  0.40790000  0.61762000  1.0
  H  H200  1  0.67347000  0.47100000  0.41853000  1.0
  H  H201  1  0.30578000  0.16566000  0.19699000  1.0
  H  H202  1  0.35686000  0.06403000  0.21601000  1.0
  H  H203  1  0.40591000  0.15482000  0.27247000  1.0
  H  H204  1  0.40677000  0.09126000  0.25840000  1.0
  H  H205  1  0.31975000  0.10593000  0.13250000  1.0
  H  H206  1  0.33645000  0.06752000  0.15478000  1.0
  H  H207  1  0.23145000  0.12006000  0.07499000  1.0
  H  H208  1  0.28221000  0.11329000  0.06991000  1.0
  H  H209  1  0.19448000  0.98774000  0.04952000  1.0
  H  H210  1  0.26505000  0.12943000  0.11110000  1.0
  H  H211  1  0.19431000  0.96291000  0.08821000  1.0
  H  H212  1  0.16138000  0.99921000  0.08203000  1.0
  H  H213  1  0.28472000  0.98815000  0.18734000  1.0
  H  H214  1  0.32142000  0.01834000  0.18002000  1.0
  H  H215  1  0.28197000  0.03262000  0.20478000  1.0
  H  H216  1  0.22296000  0.89339000  0.10667000  1.0
  H  H217  1  0.21867000  0.03417000  0.02562000  1.0
  H  H218  1  0.18423000  0.98197000  0.14680000  1.0
  H  H219  1  0.21920000  0.98921000  0.18314000  1.0
  H  H220  1  0.18450000  0.93996000  0.20175000  1.0
  H  H221  1  0.22645000  0.07994000  0.03206000  1.0
  H  H222  1  0.17054000  0.11218000  0.99650000  1.0
  H  H223  1  0.13276000  0.84267000  0.15820000  1.0
  H  H224  1  0.09633000  0.05284000  0.91849000  1.0
  H  H225  1  0.09512000  0.00305000  0.96002000  1.0
  H  H226  1  0.13080000  0.00721000  0.01948000  1.0
  H  H227  1  0.17614000  0.84403000  0.11031000  1.0
  H  H228  1  0.77395000  0.09882000  0.76304000  1.0
  H  H229  1  0.86385000  0.17720000  0.76102000  1.0
  H  H230  1  0.88686000  0.07874000  0.81502000  1.0
  H  H231  1  0.79061000  0.18826000  0.75383000  1.0
  H  H232  1  0.76261000  0.15390000  0.73732000  1.0
  H  H233  1  0.80080000  0.16999000  0.71782000  1.0
  H  H234  1  0.38779000  0.25358000  0.48703000  1.0
  H  H235  1  0.42399000  0.23581000  0.38274000  1.0
  H  H236  1  0.44687000  0.33681000  0.43506000  1.0
  H  H237  1  0.39012000  0.19256000  0.41155000  1.0
  H  H238  1  0.35909000  0.20752000  0.43997000  1.0
  H  H239  1  0.39939000  0.19296000  0.45618000  1.0
  H  H240  1  0.82470000  0.97197000  0.25318000  1.0
  H  H241  1  0.91470000  0.89737000  0.28123000  1.0
  H  H242  1  0.86858000  0.90786000  0.17205000  1.0
  H  H243  1  0.88782000  0.93179000  0.32449000  1.0
  H  H244  1  0.84152000  0.94390000  0.31532000  1.0
  H  H245  1  0.87459000  0.97242000  0.31028000  1.0
  H  H246  1  0.37028000  0.76260000  0.50847000  1.0
  H  H247  1  0.41084000  0.77081000  0.61926000  1.0
  H  H248  1  0.44524000  0.68322000  0.55591000  1.0
  H  H249  1  0.36980000  0.81283000  0.59196000  1.0
  H  H250  1  0.33852000  0.79689000  0.55865000  1.0
  H  H251  1  0.37463000  0.81957000  0.54841000  1.0
  H  H252  1  0.59604000  0.50953000  0.24537000  1.0
  H  H253  1  0.55620000  0.40180000  0.22835000  1.0
  H  H254  1  0.51998000  0.46267000  0.31620000  1.0
  H  H255  1  0.61809000  0.43061000  0.20663000  1.0
  H  H256  1  0.61599000  0.47462000  0.19911000  1.0
  H  H257  1  0.58254000  0.44492000  0.18184000  1.0
  H  H258  1  0.08383000  0.86314000  0.00253000  1.0
  H  H259  1  0.07308000  0.87098000  0.11385000  1.0
  H  H260  1  0.00667000  0.79171000  0.05206000  1.0
  H  H261  1  0.10326000  0.91549000  0.04309000  1.0
  H  H262  1  0.13603000  0.88729000  0.05208000  1.0
  H  H263  1  0.11616000  0.90673000  0.08626000  1.0
  H  H264  1  0.59178000  0.49261000  0.75123000  1.0
  H  H265  1  0.55020000  0.59516000  0.77782000  1.0
  H  H266  1  0.52143000  0.55077000  0.67302000  1.0
  H  H267  1  0.61022000  0.56368000  0.80791000  1.0
  H  H268  1  0.60799000  0.51893000  0.80689000  1.0
  H  H269  1  0.57330000  0.54464000  0.82135000  1.0
  H  H270  1  0.19460000  0.12705000  0.93838000  1.0
  H  H271  1  0.13222000  0.19767000  0.86646000  1.0
  H  H272  1  0.07194000  0.11373000  0.91620000  1.0
  H  H273  1  0.20572000  0.18313000  0.86994000  1.0
  H  H274  1  0.22549000  0.17356000  0.91111000  1.0
  H  H275  1  0.19872000  0.20975000  0.90151000  1.0
  H  H276  1  0.17301000  0.90274000  0.25445000  1.0
  H  H277  1  0.05981000  0.88009000  0.28679000  1.0
  H  H278  1  0.07860000  0.87920000  0.17594000  1.0
  H  H279  1  0.11475000  0.91564000  0.32318000  1.0
  H  H280  1  0.16019000  0.90599000  0.31435000  1.0
  H  H281  1  0.12742000  0.87533000  0.32455000  1.0
  H  H282  1  0.68824000  0.68045000  0.59763000  1.0
  H  H283  1  0.60445000  0.73366000  0.65510000  1.0
  H  H284  1  0.57814000  0.63050000  0.60872000  1.0
  H  H285  1  0.67929000  0.74408000  0.66100000  1.0
  H  H286  1  0.66194000  0.76255000  0.62559000  1.0
  H  H287  1  0.70073000  0.73661000  0.62334000  1.0
  H  H288  1  0.10105000  0.99816000  0.74470000  1.0
  H  H289  1  0.01779000  0.07941000  0.72207000  1.0
  H  H290  1  0.06014000  0.05880000  0.83048000  1.0
  H  H291  1  0.02964000  0.02535000  0.68206000  1.0
  H  H292  1  0.07446000  0.00852000  0.68689000  1.0
  H  H293  1  0.06534000  0.05166000  0.67942000  1.0
  H  H294  1  0.69523000  0.31662000  0.42048000  1.0
  H  H295  1  0.60003000  0.26604000  0.35807000  1.0
  H  H296  1  0.59345000  0.37573000  0.38941000  1.0
  H  H297  1  0.65429000  0.23556000  0.39885000  1.0
  H  H298  1  0.69723000  0.25721000  0.40243000  1.0
  H  H299  1  0.67198000  0.24704000  0.36326000  1.0
  H  H300  1  0.26948000  0.57777000  0.67009000  1.0
  H  H301  1  0.36098000  0.63340000  0.73272000  1.0
  H  H302  1  0.37767000  0.59771000  0.62656000  1.0
  H  H303  1  0.30149000  0.59755000  0.75508000  1.0
  H  H304  1  0.26129000  0.60018000  0.72698000  1.0
  H  H305  1  0.28881000  0.63569000  0.74142000  1.0
  H  H306  1  0.88045000  0.25463000  0.97882000  1.0
  H  H307  1  0.97645000  0.26296000  0.91542000  1.0
  H  H308  1  0.90670000  0.16767000  0.91070000  1.0
  H  H309  1  0.96242000  0.30800000  0.95492000  1.0
  H  H310  1  0.94076000  0.29549000  0.99122000  1.0
  H  H311  1  0.91493000  0.31221000  0.95895000  1.0
  H  H312  1  0.27238000  0.42478000  0.31610000  1.0
  H  H313  1  0.36001000  0.38012000  0.25704000  1.0
  H  H314  1  0.38653000  0.40985000  0.36707000  1.0
  H  H315  1  0.29778000  0.41119000  0.23130000  1.0
  H  H316  1  0.25996000  0.40836000  0.25625000  1.0
  H  H317  1  0.28502000  0.37309000  0.24401000  1.0
  H  H318  1  0.76975000  0.85609000  0.06140000  1.0
  H  H319  1  0.84724000  0.78242000  0.11460000  1.0
  H  H320  1  0.88927000  0.88514000  0.08517000  1.0
  H  H321  1  0.78224000  0.76755000  0.07800000  1.0
  H  H322  1  0.74899000  0.79971000  0.07722000  1.0
  H  H323  1  0.77225000  0.78412000  0.11487000  1.0
  H  H324  1  0.88014000  0.35076000  0.73121000  1.0
  H  H325  1  0.95998000  0.30574000  0.81081000  1.0
  H  H326  1  0.91424000  0.24192000  0.72128000  1.0
  H  H327  1  0.93953000  0.36407000  0.81523000  1.0
  H  H328  1  0.89440000  0.37177000  0.79710000  1.0
  H  H329  1  0.92949000  0.38435000  0.77590000  1.0
  H  H330  1  0.29171000  0.20489000  0.24138000  1.0
  H  H331  1  0.34852000  0.30435000  0.26867000  1.0
  H  H332  1  0.41594000  0.21221000  0.25185000  1.0
  H  H333  1  0.25558000  0.25697000  0.24998000  1.0
  H  H334  1  0.82283000  0.66469000  0.25690000  1.0
  H  H335  1  0.88184000  0.70721000  0.17129000  1.0
  H  H336  1  0.88832000  0.76235000  0.27201000  1.0
  H  H337  1  0.82289000  0.66448000  0.16531000  1.0
  H  H338  1  0.81719000  0.63814000  0.20052000  1.0
  H  H339  1  0.85829000  0.64129000  0.18036000  1.0
  H  H340  1  0.32061000  0.81984000  0.74775000  1.0
  H  H341  1  0.43886000  0.80253000  0.72992000  1.0
  H  H342  1  0.36175000  0.71337000  0.73917000  1.0
  H  H343  1  0.41104000  0.85870000  0.75737000  1.0
  H  H344  1  0.36437000  0.86696000  0.74443000  1.0
  H  H345  1  0.39800000  0.85945000  0.71593000  1.0
  H  H346  1  0.58945000  0.23202000  0.14424000  1.0
  H  H347  1  0.50041000  0.29817000  0.17682000  1.0
  H  H348  1  0.58521000  0.25824000  0.25561000  1.0
  H  H349  1  0.52297000  0.24503000  0.11014000  1.0
  H  H350  1  0.55150000  0.27765000  0.10559000  1.0
  H  H351  1  0.50674000  0.28610000  0.11707000  1.0
  H  H352  1  0.14614000  0.69010000  0.24853000  1.0
  H  H353  1  0.06476000  0.72372000  0.16389000  1.0
  H  H354  1  0.04793000  0.75074000  0.27253000  1.0
  H  H355  1  0.11116000  0.67081000  0.16228000  1.0
  H  H356  1  0.15240000  0.67462000  0.18932000  1.0
  H  H357  1  0.13669000  0.70586000  0.16009000  1.0
  H  H358  1  0.64418000  0.74961000  0.85298000  1.0
  H  H359  1  0.53672000  0.69540000  0.82185000  1.0
  H  H360  1  0.59823000  0.74893000  0.74341000  1.0
  H  H361  1  0.56328000  0.69654000  0.88254000  1.0
  H  H362  1  0.15945000  0.23072000  0.67551000  1.0
  H  H363  1  0.09954000  0.15641000  0.73669000  1.0
  H  H364  1  0.07848000  0.26778000  0.74725000  1.0
  H  H365  1  0.16460000  0.14653000  0.71088000  1.0
  H  H366  1  0.17299000  0.17051000  0.67465000  1.0
  H  H367  1  0.13313000  0.14531000  0.67765000  1.0
  H  H368  1  0.27873000  0.29879000  0.26161000  1.0
  H  H369  1  0.60791000  0.71910000  0.89619000  1.0
  C  C370  1  0.96374000  0.24043000  0.78081000  1.0
  C  C371  1  0.92119000  0.13982000  0.79512000  1.0
  C  C372  1  0.06095000  0.16769000  0.86957000  1.0
  C  C373  1  0.01495000  0.10341000  0.79019000  1.0
  C  C374  1  0.05382000  0.20277000  0.76664000  1.0
  C  C375  1  0.96657000  0.19899000  0.88145000  1.0
  C  C376  1  0.51789000  0.29422000  0.24804000  1.0
  C  C377  1  0.51159000  0.39826000  0.28378000  1.0
  C  C378  1  0.45846000  0.30010000  0.37486000  1.0
  C  C379  1  0.41710000  0.38003000  0.31055000  1.0
  C  C380  1  0.42163000  0.28194000  0.27038000  1.0
  C  C381  1  0.55278000  0.32291000  0.35345000  1.0
  C  C382  1  0.91649000  0.76323000  0.20750000  1.0
  C  C383  1  0.92384000  0.87489000  0.21320000  1.0
  C  C384  1  0.01359000  0.82450000  0.11662000  1.0
  C  C385  1  0.02575000  0.86527000  0.22059000  1.0
  C  C386  1  0.01794000  0.76039000  0.20466000  1.0
  C  C387  1  0.91131000  0.82487000  0.11968000  1.0
  C  C388  1  0.43508000  0.73041000  0.72641000  1.0
  C  C389  1  0.45378000  0.71113000  0.62264000  1.0
  C  C390  1  0.50959000  0.60816000  0.71422000  1.0
  C  C391  1  0.54888000  0.68217000  0.64777000  1.0
  C  C392  1  0.53340000  0.71029000  0.75112000  1.0
  C  C393  1  0.41336000  0.63219000  0.68398000  1.0
  C  C394  1  0.65849000  0.77309000  0.78733000  1.0
  C  C395  1  0.67155000  0.80298000  0.80791000  1.0
  C  C396  1  0.70291000  0.82418000  0.79806000  1.0
  C  C397  1  0.72062000  0.81438000  0.76762000  1.0
  C  C398  1  0.70785000  0.78474000  0.74726000  1.0
  C  C399  1  0.67698000  0.76421000  0.75695000  1.0
  C  C400  1  0.69949000  0.86425000  0.84645000  1.0
  C  C401  1  0.71933000  0.89785000  0.86235000  1.0
  C  C402  1  0.70707000  0.93180000  0.85031000  1.0
  C  C403  1  0.67358000  0.93399000  0.82152000  1.0
  C  C404  1  0.72626000  0.96295000  0.86507000  1.0
  C  C405  1  0.75563000  0.96002000  0.89362000  1.0
  C  C406  1  0.75093000  0.89524000  0.88860000  1.0
  C  C407  1  0.76937000  0.85956000  0.89644000  1.0
  C  C408  1  0.77652000  0.99322000  0.90909000  1.0
  C  C409  1  0.79498000  0.94183000  0.00140000  1.0
  C  C410  1  0.81020000  0.97336000  0.01720000  1.0
  C  C411  1  0.83172000  0.97278000  0.05030000  1.0
  C  C412  1  0.79980000  0.90988000  0.02011000  1.0
  C  C413  1  0.71596000  0.99919000  0.84944000  1.0
  C  C414  1  0.76302000  0.00707000  0.81145000  1.0
  C  C415  1  0.77670000  0.04165000  0.80672000  1.0
  C  C416  1  0.82198000  0.90891000  0.05306000  1.0
  C  C417  1  0.82660000  0.98462000  0.80388000  1.0
  C  C418  1  0.78801000  0.97851000  0.80941000  1.0
  C  C419  1  0.76525000  0.92611000  0.90750000  1.0
  C  C420  1  0.81526000  0.04810000  0.79971000  1.0
  C  C421  1  0.78961000  0.92298000  0.94296000  1.0
  C  C422  1  0.84017000  0.01909000  0.79881000  1.0
  C  C423  1  0.83801000  0.94071000  0.06801000  1.0
  C  C424  1  0.12552000  0.29109000  0.69705000  1.0
  C  C425  1  0.16100000  0.30259000  0.68525000  1.0
  C  C426  1  0.16487000  0.33629000  0.67040000  1.0
  C  C427  1  0.13394000  0.35971000  0.66947000  1.0
  C  C428  1  0.09892000  0.34887000  0.68133000  1.0
  C  C429  1  0.09449000  0.31476000  0.69459000  1.0
  C  C430  1  0.19711000  0.34487000  0.62095000  1.0
  C  C431  1  0.23197000  0.36388000  0.60753000  1.0
  C  C432  1  0.26143000  0.34443000  0.59272000  1.0
  C  C433  1  0.26358000  0.30456000  0.59747000  1.0
  C  C434  1  0.28881000  0.36255000  0.57337000  1.0
  C  C435  1  0.29278000  0.40006000  0.57680000  1.0
  C  C436  1  0.23529000  0.40149000  0.60987000  1.0
  C  C437  1  0.20461000  0.42278000  0.62646000  1.0
  C  C438  1  0.32496000  0.42000000  0.56020000  1.0
  C  C439  1  0.27764000  0.51266000  0.58259000  1.0
  C  C440  1  0.28234000  0.52762000  0.54941000  1.0
  C  C441  1  0.30021000  0.56082000  0.54711000  1.0
  C  C442  1  0.28953000  0.53246000  0.61376000  1.0
  C  C443  1  0.31530000  0.34199000  0.55088000  1.0
  C  C444  1  0.38184000  0.34214000  0.54772000  1.0
  C  C445  1  0.38279000  0.32073000  0.51686000  1.0
  C  C446  1  0.30783000  0.56578000  0.61163000  1.0
  C  C447  1  0.44566000  0.36514000  0.53885000  1.0
  C  C448  1  0.41377000  0.36378000  0.55865000  1.0
  C  C449  1  0.26851000  0.41877000  0.59854000  1.0
  C  C450  1  0.41514000  0.32161000  0.49683000  1.0
  C  C451  1  0.27776000  0.45722000  0.60906000  1.0
  C  C452  1  0.44647000  0.34422000  0.50823000  1.0
  C  C453  1  0.31323000  0.57971000  0.57799000  1.0
  C  C454  1  0.62682000  0.21962000  0.21007000  1.0
  C  C455  1  0.65381000  0.21320000  0.18496000  1.0
  C  C456  1  0.68371000  0.18903000  0.19172000  1.0
  C  C457  1  0.68709000  0.17127000  0.22444000  1.0
  C  C458  1  0.66169000  0.17834000  0.25004000  1.0
  C  C459  1  0.63158000  0.20193000  0.24289000  1.0
  C  C460  1  0.74440000  0.18400000  0.17136000  1.0
  C  C461  1  0.76502000  0.16201000  0.14481000  1.0
  C  C462  1  0.77924000  0.17800000  0.11443000  1.0
  C  C463  1  0.77000000  0.21640000  0.10579000  1.0
  C  C464  1  0.80268000  0.15808000  0.09271000  1.0
  C  C465  1  0.80522000  0.12075000  0.09728000  1.0
  C  C466  1  0.76763000  0.12465000  0.14903000  1.0
  C  C467  1  0.75181000  0.10699000  0.18091000  1.0
  C  C468  1  0.83040000  0.09912000  0.07450000  1.0
  C  C469  1  0.79888000  0.01092000  0.14733000  1.0
  C  C470  1  0.77407000  0.98904000  0.12423000  1.0
  C  C471  1  0.77123000  0.95264000  0.13008000  1.0
  C  C472  1  0.82041000  0.99497000  0.17598000  1.0
  C  C473  1  0.82111000  0.17586000  0.06204000  1.0
  C  C474  1  0.80912000  0.17225000  0.99993000  1.0
  C  C475  1  0.84232000  0.19108000  0.99096000  1.0
  C  C476  1  0.81788000  0.95828000  0.18162000  1.0
  C  C477  1  0.80041000  0.14818000  0.93983000  1.0
  C  C478  1  0.78833000  0.15125000  0.97391000  1.0
  C  C479  1  0.78343000  0.10385000  0.12254000  1.0
  C  C480  1  0.85476000  0.18827000  0.95638000  1.0
  C  C481  1  0.77635000  0.06392000  0.12079000  1.0
  C  C482  1  0.83315000  0.16660000  0.93101000  1.0
  C  C483  1  0.79318000  0.93724000  0.15839000  1.0
  C  C484  1  0.11207000  0.71971000  0.30362000  1.0
  C  C485  1  0.12873000  0.68908000  0.31896000  1.0
  C  C486  1  0.14375000  0.68910000  0.35501000  1.0
  C  C487  1  0.13942000  0.71926000  0.37606000  1.0
  C  C488  1  0.12242000  0.74960000  0.36121000  1.0
  C  C489  1  0.10918000  0.75004000  0.32518000  1.0
  C  C490  1  0.18817000  0.64453000  0.34954000  1.0
  C  C491  1  0.22045000  0.62788000  0.37334000  1.0
  C  C492  1  0.22434000  0.59051000  0.37404000  1.0
  C  C493  1  0.19130000  0.56639000  0.35923000  1.0
  C  C494  1  0.25957000  0.57578000  0.38816000  1.0
  C  C495  1  0.28620000  0.59708000  0.41012000  1.0
  C  C496  1  0.24795000  0.64971000  0.39387000  1.0
  C  C497  1  0.24322000  0.68977000  0.39576000  1.0
  C  C498  1  0.32167000  0.58101000  0.43002000  1.0
  C  C499  1  0.36993000  0.67602000  0.44103000  1.0
  C  C500  1  0.40434000  0.66446000  0.42866000  1.0
  C  C501  1  0.43949000  0.67057000  0.44875000  1.0
  C  C502  1  0.37136000  0.69544000  0.47330000  1.0
  C  C503  1  0.26916000  0.53785000  0.37885000  1.0
  C  C504  1  0.28501000  0.48472000  0.40795000  1.0
  C  C505  1  0.29450000  0.46713000  0.37664000  1.0
  C  C506  1  0.40664000  0.70152000  0.49374000  1.0
  C  C507  1  0.31760000  0.43851000  0.44303000  1.0
  C  C508  1  0.29619000  0.46953000  0.44093000  1.0
  C  C509  1  0.27884000  0.63373000  0.41482000  1.0
  C  C510  1  0.31651000  0.43616000  0.37855000  1.0
  C  C511  1  0.30631000  0.65643000  0.43954000  1.0
  C  C512  1  0.32801000  0.42202000  0.41210000  1.0
  C  C513  1  0.44069000  0.68877000  0.48123000  1.0
  C  C514  1  0.84619000  0.71501000  0.30717000  1.0
  C  C515  1  0.81051000  0.70287000  0.31773000  1.0
  C  C516  1  0.80371000  0.70248000  0.35377000  1.0
  C  C517  1  0.83188000  0.71609000  0.37945000  1.0
  C  C518  1  0.86721000  0.72831000  0.36933000  1.0
  C  C519  1  0.87455000  0.72748000  0.33356000  1.0
  C  C520  1  0.77369000  0.65618000  0.37867000  1.0
  C  C521  1  0.73537000  0.64302000  0.39040000  1.0
  C  C522  1  0.71008000  0.62199000  0.36698000  1.0
  C  C523  1  0.71688000  0.61899000  0.32780000  1.0
  C  C524  1  0.67872000  0.60349000  0.38030000  1.0
  C  C525  1  0.66974000  0.60978000  0.41583000  1.0
  C  C526  1  0.72549000  0.65063000  0.42533000  1.0
  C  C527  1  0.74792000  0.67896000  0.44786000  1.0
  C  C528  1  0.63415000  0.59211000  0.42907000  1.0
  C  C529  1  0.67068000  0.59751000  0.52485000  1.0
  C  C530  1  0.66132000  0.56322000  0.53556000  1.0
  C  C531  1  0.64403000  0.55765000  0.56703000  1.0
  C  C532  1  0.66308000  0.62654000  0.54731000  1.0
  C  C533  1  0.65391000  0.57794000  0.35620000  1.0
  C  C534  1  0.59090000  0.57623000  0.33065000  1.0
  C  C535  1  0.59160000  0.54388000  0.31166000  1.0
  C  C536  1  0.64498000  0.62112000  0.57876000  1.0
  C  C537  1  0.52167000  0.56939000  0.33174000  1.0
  C  C538  1  0.55563000  0.58905000  0.33985000  1.0
  C  C539  1  0.69445000  0.63185000  0.43902000  1.0
  C  C540  1  0.55743000  0.52397000  0.30324000  1.0
  C  C541  1  0.68770000  0.63457000  0.47838000  1.0
  C  C542  1  0.52249000  0.53700000  0.31366000  1.0
  C  C543  1  0.63571000  0.58634000  0.58844000  1.0
  C  C544  1  0.29717000  0.75067000  0.74820000  1.0
  C  C545  1  0.27396000  0.76623000  0.77259000  1.0
  C  C546  1  0.23640000  0.75362000  0.77598000  1.0
  C  C547  1  0.22257000  0.72377000  0.75545000  1.0
  C  C548  1  0.24539000  0.70819000  0.73124000  1.0
  C  C549  1  0.28233000  0.72157000  0.72744000  1.0
  C  C550  1  0.17640000  0.77296000  0.79058000  1.0
  C  C551  1  0.15872000  0.79823000  0.81609000  1.0
  C  C552  1  0.15576000  0.83493000  0.80825000  1.0
  C  C553  1  0.17578000  0.85030000  0.77754000  1.0
  C  C554  1  0.13395000  0.85718000  0.82913000  1.0
  C  C555  1  0.12011000  0.84389000  0.86073000  1.0
  C  C556  1  0.14400000  0.78488000  0.84736000  1.0
  C  C557  1  0.15242000  0.74713000  0.85912000  1.0
  C  C558  1  0.10356000  0.86925000  0.88676000  1.0
  C  C559  1  0.04188000  0.79772000  0.92366000  1.0
  C  C560  1  0.00496000  0.78259000  0.91790000  1.0
  C  C561  1  0.98148000  0.77966000  0.94576000  1.0
  C  C562  1  0.05486000  0.81044000  0.95800000  1.0
  C  C563  1  0.12536000  0.89517000  0.81788000  1.0
  C  C564  1  0.14421000  0.95268000  0.83697000  1.0
  C  C565  1  0.11850000  0.97056000  0.81219000  1.0
  C  C566  1  0.03117000  0.80843000  0.98646000  1.0
  C  C567  1  0.15392000  0.00736000  0.87135000  1.0
  C  C568  1  0.16193000  0.97169000  0.86616000  1.0
  C  C569  1  0.12150000  0.80694000  0.86775000  1.0
  C  C570  1  0.11028000  0.00673000  0.81714000  1.0
  C  C571  1  0.09895000  0.79135000  0.89701000  1.0
  C  C572  1  0.12846000  0.02483000  0.84707000  1.0
  C  C573  1  0.99413000  0.79279000  0.97960000  1.0
  C  C574  1  0.86805000  0.29210000  0.68855000  1.0
  C  C575  1  0.83217000  0.30911000  0.68488000  1.0
  C  C576  1  0.80807000  0.30628000  0.65290000  1.0
  C  C577  1  0.81907000  0.28470000  0.62532000  1.0
  C  C578  1  0.85448000  0.26773000  0.62866000  1.0
  C  C579  1  0.87900000  0.27159000  0.65988000  1.0
  C  C580  1  0.77664000  0.35967000  0.65305000  1.0
  C  C581  1  0.74234000  0.37727000  0.63270000  1.0
  C  C582  1  0.71377000  0.39431000  0.65112000  1.0
  C  C583  1  0.71236000  0.38889000  0.69085000  1.0
  C  C584  1  0.68679000  0.41671000  0.63216000  1.0
  C  C585  1  0.68282000  0.41538000  0.59433000  1.0
  C  C586  1  0.73820000  0.37600000  0.59485000  1.0
  C  C587  1  0.76658000  0.35572000  0.57424000  1.0
  C  C588  1  0.65348000  0.43870000  0.57378000  1.0
  C  C589  1  0.69496000  0.40837000  0.48142000  1.0
  C  C590  1  0.69270000  0.44159000  0.46519000  1.0
  C  C591  1  0.67536000  0.44509000  0.43061000  1.0
  C  C592  1  0.68089000  0.37810000  0.46156000  1.0
  C  C593  1  0.65957000  0.43916000  0.65212000  1.0
  C  C594  1  0.59350000  0.44026000  0.65675000  1.0
  C  C595  1  0.59252000  0.46906000  0.68087000  1.0
  C  C596  1  0.66306000  0.38148000  0.42682000  1.0
  C  C597  1  0.52615000  0.44950000  0.63735000  1.0
  C  C598  1  0.55991000  0.43045000  0.63560000  1.0
  C  C599  1  0.70552000  0.39147000  0.57619000  1.0
  C  C600  1  0.55840000  0.48830000  0.68306000  1.0
  C  C601  1  0.69488000  0.38226000  0.53717000  1.0
  C  C602  1  0.52530000  0.47819000  0.66088000  1.0
  C  C603  1  0.66037000  0.41531000  0.41157000  1.0
  C  C604  1  0.35587000  0.16551000  0.23569000  1.0
  C  C605  1  0.32816000  0.14985000  0.21054000  1.0
  C  C606  1  0.32869000  0.11356000  0.20258000  1.0
  C  C607  1  0.35699000  0.09240000  0.22040000  1.0
  C  C608  1  0.38507000  0.10771000  0.24478000  1.0
  C  C609  1  0.38454000  0.14396000  0.25253000  1.0
  C  C610  1  0.31062000  0.08426000  0.14975000  1.0
  C  C611  1  0.27794000  0.06131000  0.13180000  1.0
  C  C612  1  0.25590000  0.07271000  0.10050000  1.0
  C  C613  1  0.25915000  0.11078000  0.08826000  1.0
  C  C614  1  0.23057000  0.04815000  0.08095000  1.0
  C  C615  1  0.22034000  0.01595000  0.09724000  1.0
  C  C616  1  0.26779000  0.02885000  0.14769000  1.0
  C  C617  1  0.28993000  0.01654000  0.18184000  1.0
  C  C618  1  0.19098000  0.99032000  0.07827000  1.0
  C  C619  1  0.20632000  0.92073000  0.15318000  1.0
  C  C620  1  0.20436000  0.89296000  0.12817000  1.0
  C  C621  1  0.17784000  0.86509000  0.13011000  1.0
  C  C622  1  0.18252000  0.91926000  0.18156000  1.0
  C  C623  1  0.21268000  0.05657000  0.04370000  1.0
  C  C624  1  0.15425000  0.05953000  0.01134000  1.0
  C  C625  1  0.15466000  0.08820000  0.98795000  1.0
  C  C626  1  0.15533000  0.89162000  0.18330000  1.0
  C  C627  1  0.11175000  0.02680000  0.96778000  1.0
  C  C628  1  0.13217000  0.02911000  0.00132000  1.0
  C  C629  1  0.23528000  0.00918000  0.13266000  1.0
  C  C630  1  0.13370000  0.08629000  0.95431000  1.0
  C  C631  1  0.21596000  0.98165000  0.15447000  1.0
  C  C632  1  0.11241000  0.05520000  0.94437000  1.0
  C  C633  1  0.15320000  0.86452000  0.15729000  1.0
  C  C634  1  0.85423000  0.15141000  0.76954000  1.0
  C  C635  1  0.86699000  0.09585000  0.79985000  1.0
  C  C636  1  0.88019000  0.12892000  0.78859000  1.0
  C  C637  1  0.82859000  0.08446000  0.79076000  1.0
  C  C638  1  0.80327000  0.10734000  0.77123000  1.0
  C  C639  1  0.81571000  0.14097000  0.76098000  1.0
  C  C640  1  0.42207000  0.25330000  0.40545000  1.0
  C  C641  1  0.43529000  0.30999000  0.43524000  1.0
  C  C642  1  0.43840000  0.28761000  0.40560000  1.0
  C  C643  1  0.41695000  0.29821000  0.46489000  1.0
  C  C644  1  0.40125000  0.26360000  0.46426000  1.0
  C  C645  1  0.40344000  0.24112000  0.43463000  1.0
  C  C646  1  0.89466000  0.90931000  0.26136000  1.0
  C  C647  1  0.86883000  0.91523000  0.19994000  1.0
  C  C648  1  0.89506000  0.89956000  0.22541000  1.0
  C  C649  1  0.84362000  0.94135000  0.20964000  1.0
  C  C650  1  0.84405000  0.95162000  0.24548000  1.0
  C  C651  1  0.86914000  0.93537000  0.27164000  1.0
  C  C652  1  0.41019000  0.75687000  0.59394000  1.0
  C  C653  1  0.42965000  0.70765000  0.55825000  1.0
  C  C654  1  0.43104000  0.72551000  0.59119000  1.0
  C  C655  1  0.40785000  0.72078000  0.52827000  1.0
  C  C656  1  0.38704000  0.75206000  0.53148000  1.0
  C  C657  1  0.38807000  0.77029000  0.56421000  1.0
  C  C658  1  0.55656000  0.42627000  0.24371000  1.0
  C  C659  1  0.53622000  0.46060000  0.29310000  1.0
  C  C660  1  0.53511000  0.42876000  0.27340000  1.0
  C  C661  1  0.55796000  0.48996000  0.28314000  1.0
  C  C662  1  0.57946000  0.48695000  0.25350000  1.0
  C  C663  1  0.57899000  0.45515000  0.23370000  1.0
  C  C664  1  0.06537000  0.85755000  0.08869000  1.0
  C  C665  1  0.02766000  0.81320000  0.05336000  1.0
  C  C666  1  0.03684000  0.83068000  0.08617000  1.0
  C  C667  1  0.04409000  0.82442000  0.02232000  1.0
  C  C668  1  0.07161000  0.85246000  0.02559000  1.0
  C  C669  1  0.08305000  0.86844000  0.05865000  1.0
  C  C670  1  0.55188000  0.57390000  0.75851000  1.0
  C  C671  1  0.53553000  0.54866000  0.69969000  1.0
  C  C672  1  0.53253000  0.57646000  0.72435000  1.0
  C  C673  1  0.55684000  0.51821000  0.70898000  1.0
  C  C674  1  0.57581000  0.51612000  0.74339000  1.0
  C  C675  1  0.57364000  0.54390000  0.76822000  1.0
  C  C676  1  0.13221000  0.17527000  0.88424000  1.0
  C  C677  1  0.09845000  0.12789000  0.91208000  1.0
  C  C678  1  0.09760000  0.15705000  0.88918000  1.0
  C  C679  1  0.13327000  0.11697000  0.93003000  1.0
  C  C680  1  0.16755000  0.13555000  0.92491000  1.0
  C  C681  1  0.16727000  0.16472000  0.90202000  1.0
  C  C682  1  0.07885000  0.88410000  0.26593000  1.0
  C  C683  1  0.08954000  0.88358000  0.20341000  1.0
  C  C684  1  0.06467000  0.87954000  0.23022000  1.0
  C  C685  1  0.12881000  0.89119000  0.21187000  1.0
  C  C686  1  0.14267000  0.89684000  0.24766000  1.0
  C  C687  1  0.11778000  0.89349000  0.27489000  1.0
  C  C688  1  0.61263000  0.71091000  0.63986000  1.0
  C  C689  1  0.59821000  0.65253000  0.61426000  1.0
  C  C690  1  0.58705000  0.68195000  0.63370000  1.0
  C  C691  1  0.63446000  0.65184000  0.60072000  1.0
  C  C692  1  0.65994000  0.68090000  0.60742000  1.0
  C  C693  1  0.64927000  0.71051000  0.62705000  1.0
  C  C694  1  0.03561000  0.06439000  0.74139000  1.0
  C  C695  1  0.05999000  0.05294000  0.80231000  1.0
  C  C696  1  0.03647000  0.07274000  0.77777000  1.0
  C  C697  1  0.08359000  0.02591000  0.79089000  1.0
  C  C698  1  0.08250000  0.01824000  0.75423000  1.0
  C  C699  1  0.05836000  0.03708000  0.72941000  1.0
  C  C700  1  0.61277000  0.28945000  0.37161000  1.0
  C  C701  1  0.60938000  0.35131000  0.38883000  1.0
  C  C702  1  0.59225000  0.32119000  0.37132000  1.0
  C  C703  1  0.64631000  0.34985000  0.40695000  1.0
  C  C704  1  0.66653000  0.31791000  0.40690000  1.0
  C  C705  1  0.65002000  0.28762000  0.38916000  1.0
  C  C706  1  0.35024000  0.62003000  0.70815000  1.0
  C  C707  1  0.35934000  0.60042000  0.64815000  1.0
  C  C708  1  0.37380000  0.61729000  0.68001000  1.0
  C  C709  1  0.32195000  0.58555000  0.64454000  1.0
  C  C710  1  0.29857000  0.58872000  0.67285000  1.0
  C  C711  1  0.31240000  0.60620000  0.70465000  1.0
  C  C712  1  0.95252000  0.24760000  0.92410000  1.0
  C  C713  1  0.91276000  0.19420000  0.92118000  1.0
  C  C714  1  0.94395000  0.21372000  0.90952000  1.0
  C  C715  1  0.88934000  0.20848000  0.94615000  1.0
  C  C716  1  0.89838000  0.24260000  0.96016000  1.0
  C  C717  1  0.93001000  0.26215000  0.94955000  1.0
  C  C718  1  0.35136000  0.39127000  0.28165000  1.0
  C  C719  1  0.36596000  0.40745000  0.34381000  1.0
  C  C720  1  0.37779000  0.39357000  0.31196000  1.0
  C  C721  1  0.32814000  0.41937000  0.34545000  1.0
  C  C722  1  0.30185000  0.41637000  0.31497000  1.0
  C  C723  1  0.31323000  0.40232000  0.28298000  1.0
  C  C724  1  0.84245000  0.80803000  0.10231000  1.0
  C  C725  1  0.86587000  0.86599000  0.08608000  1.0
  C  C726  1  0.87296000  0.83279000  0.10173000  1.0
  C  C727  1  0.82881000  0.87452000  0.07114000  1.0
  C  C728  1  0.79858000  0.84956000  0.07233000  1.0
  C  C729  1  0.80518000  0.81622000  0.08776000  1.0
  C  C730  1  0.94161000  0.30283000  0.78616000  1.0
  C  C731  1  0.91623000  0.26718000  0.73531000  1.0
  C  C732  1  0.94026000  0.27054000  0.76716000  1.0
  C  C733  1  0.89390000  0.29581000  0.72213000  1.0
  C  C734  1  0.89629000  0.32809000  0.74126000  1.0
  C  C735  1  0.91985000  0.33177000  0.77331000  1.0
  C  C736  1  0.35015000  0.27642000  0.26197000  1.0
  C  C737  1  0.38805000  0.22424000  0.25307000  1.0
  C  C738  1  0.38625000  0.26044000  0.26156000  1.0
  C  C739  1  0.35408000  0.20387000  0.24509000  1.0
  C  C740  1  0.31819000  0.22030000  0.24634000  1.0
  C  C741  1  0.31596000  0.25650000  0.25456000  1.0
  C  C742  1  0.87395000  0.70939000  0.19837000  1.0
  C  C743  1  0.87761000  0.74025000  0.25521000  1.0
  C  C744  1  0.88830000  0.73775000  0.22027000  1.0
  C  C745  1  0.85430000  0.71388000  0.26903000  1.0
  C  C746  1  0.84025000  0.68561000  0.24665000  1.0
  C  C747  1  0.84956000  0.68342000  0.21120000  1.0
  C  C748  1  0.41057000  0.79184000  0.73411000  1.0
  C  C749  1  0.36702000  0.74177000  0.73918000  1.0
  C  C750  1  0.40400000  0.75500000  0.73384000  1.0
  C  C751  1  0.33663000  0.76489000  0.74418000  1.0
  C  C752  1  0.34386000  0.80168000  0.74447000  1.0
  C  C753  1  0.38076000  0.81535000  0.73960000  1.0
  C  C754  1  0.52614000  0.28305000  0.18380000  1.0
  C  C755  1  0.57381000  0.25991000  0.22805000  1.0
  C  C756  1  0.54003000  0.27930000  0.21968000  1.0
  C  C757  1  0.59254000  0.24261000  0.20116000  1.0
  C  C758  1  0.57706000  0.24598000  0.16553000  1.0
  C  C759  1  0.54451000  0.26658000  0.15663000  1.0
  C  C760  1  0.07378000  0.72267000  0.19211000  1.0
  C  C761  1  0.06458000  0.73797000  0.25328000  1.0
  C  C762  1  0.05223000  0.73964000  0.21684000  1.0
  C  C763  1  0.09841000  0.72017000  0.26510000  1.0
  C  C764  1  0.11963000  0.70340000  0.23991000  1.0
  C  C765  1  0.10738000  0.70436000  0.20342000  1.0
  C  C766  1  0.56121000  0.71106000  0.81483000  1.0
  C  C767  1  0.59602000  0.74090000  0.77067000  1.0
  C  C768  1  0.56394000  0.72077000  0.77928000  1.0
  C  C769  1  0.62500000  0.75157000  0.79703000  1.0
  C  C770  1  0.62175000  0.74179000  0.83248000  1.0
  C  C771  1  0.58996000  0.72142000  0.84159000  1.0
  C  C772  1  0.10557000  0.18367000  0.72978000  1.0
  C  C773  1  0.09379000  0.24655000  0.73549000  1.0
  C  C774  1  0.08558000  0.21135000  0.74455000  1.0
  C  C775  1  0.12019000  0.25415000  0.71015000  1.0
  C  C776  1  0.13977000  0.22582000  0.69562000  1.0
  C  C777  1  0.13308000  0.19067000  0.70572000  1.0
  N  N778  1  0.79111000  0.16300000  0.74227000  1.0
  N  N779  1  0.38800000  0.20779000  0.43458000  1.0
  N  N780  1  0.86902000  0.94529000  0.30635000  1.0
  N  N781  1  0.36778000  0.80054000  0.56689000  1.0
  N  N782  1  0.59970000  0.45227000  0.20498000  1.0
  N  N783  1  0.10992000  0.89511000  0.06108000  1.0
  N  N784  1  0.59206000  0.54181000  0.80144000  1.0
  N  N785  1  0.20049000  0.18250000  0.89677000  1.0
  N  N786  1  0.13128000  0.89808000  0.30958000  1.0
  N  N787  1  0.67403000  0.73847000  0.63379000  1.0
  N  N788  1  0.05759000  0.02967000  0.69402000  1.0
  N  N789  1  0.66964000  0.25677000  0.38899000  1.0
  N  N790  1  0.28966000  0.60963000  0.73189000  1.0
  N  N791  1  0.93814000  0.29511000  0.96340000  1.0
  N  N792  1  0.28773000  0.39917000  0.25362000  1.0
  N  N793  1  0.77592000  0.79212000  0.08893000  1.0
  N  N794  1  0.92158000  0.36313000  0.79147000  1.0
  N  N795  1  0.28102000  0.27186000  0.25548000  1.0
  N  N796  1  0.83605000  0.65602000  0.18969000  1.0
  N  N797  1  0.38759000  0.85093000  0.73960000  1.0
  N  N798  1  0.53044000  0.26963000  0.12201000  1.0
  N  N799  1  0.12800000  0.68823000  0.17913000  1.0
  N  N800  1  0.58688000  0.71171000  0.87585000  1.0
  N  N801  1  0.15200000  0.16346000  0.69154000  1.0
  O  O802  1  0.02851000  0.15186000  0.87602000  1.0
  O  O803  1  0.06113000  0.19415000  0.84764000  1.0
  O  O804  1  0.99235000  0.12157000  0.76754000  1.0
  O  O805  1  0.01813000  0.11134000  0.82398000  1.0
  O  O806  1  0.04370000  0.22541000  0.79063000  1.0
  O  O807  1  0.03283000  0.17465000  0.75793000  1.0
  O  O808  1  0.99806000  0.21547000  0.87313000  1.0
  O  O809  1  0.95616000  0.16834000  0.86716000  1.0
  O  O810  1  0.97322000  0.21558000  0.75870000  1.0
  O  O811  1  0.97807000  0.24121000  0.81393000  1.0
  O  O812  1  0.94441000  0.12327000  0.81857000  1.0
  O  O813  1  0.93443000  0.16341000  0.77421000  1.0
  O  O814  1  0.99664000  0.17555000  0.81413000  1.0
  O  O815  1  0.47816000  0.33004000  0.37749000  1.0
  O  O816  1  0.45889000  0.27971000  0.34680000  1.0
  O  O817  1  0.43243000  0.37909000  0.28010000  1.0
  O  O818  1  0.43670000  0.37038000  0.33978000  1.0
  O  O819  1  0.45404000  0.26672000  0.28181000  1.0
  O  O820  1  0.42022000  0.31590000  0.26474000  1.0
  O  O821  1  0.53251000  0.29347000  0.34700000  1.0
  O  O822  1  0.53750000  0.35398000  0.34815000  1.0
  O  O823  1  0.48627000  0.31151000  0.23882000  1.0
  O  O824  1  0.52656000  0.28525000  0.28105000  1.0
  O  O825  1  0.49726000  0.39870000  0.31480000  1.0
  O  O826  1  0.50177000  0.37330000  0.26039000  1.0
  O  O827  1  0.48044000  0.32978000  0.30676000  1.0
  O  O828  1  0.01308000  0.84985000  0.14005000  1.0
  O  O829  1  0.98767000  0.79879000  0.11561000  1.0
  O  O830  1  0.01635000  0.83525000  0.23423000  1.0
  O  O831  1  0.00319000  0.88104000  0.19615000  1.0
  O  O832  1  0.00917000  0.76453000  0.17051000  1.0
  O  O833  1  0.99562000  0.77257000  0.22826000  1.0
  O  O834  1  0.91743000  0.79365000  0.13349000  1.0
  O  O835  1  0.93886000  0.84920000  0.12156000  1.0
  O  O836  1  0.92404000  0.79274000  0.22515000  1.0
  O  O837  1  0.93825000  0.75302000  0.18285000  1.0
  O  O838  1  0.92933000  0.87567000  0.17965000  1.0
  O  O839  1  0.94554000  0.85583000  0.23579000  1.0
  O  O840  1  0.96827000  0.81866000  0.18047000  1.0
  O  O841  1  0.49077000  0.60930000  0.68255000  1.0
  O  O842  1  0.50554000  0.63299000  0.73787000  1.0
  O  O843  1  0.53212000  0.71251000  0.65283000  1.0
  O  O844  1  0.53106000  0.65203000  0.65175000  1.0
  O  O845  1  0.50134000  0.69533000  0.75976000  1.0
  O  O846  1  0.53736000  0.71951000  0.71846000  1.0
  O  O847  1  0.43256000  0.63289000  0.71554000  1.0
  O  O848  1  0.42974000  0.64141000  0.65567000  1.0
  O  O849  1  0.46755000  0.74310000  0.71623000  1.0
  O  O850  1  0.43037000  0.69658000  0.73169000  1.0
  O  O851  1  0.47003000  0.68019000  0.62029000  1.0
  O  O852  1  0.46014000  0.73080000  0.65118000  1.0
  O  O853  1  0.48244000  0.67890000  0.69117000  1.0
  O  O854  1  0.72406000  0.00105000  0.81342000  1.0
  O  O855  1  0.77272000  0.94326000  0.96913000  1.0
  O  O856  1  0.71794000  0.85460000  0.81604000  1.0
  O  O857  1  0.35215000  0.34020000  0.56988000  1.0
  O  O858  1  0.25929000  0.47970000  0.58317000  1.0
  O  O859  1  0.19972000  0.34692000  0.65862000  1.0
  O  O860  1  0.79335000  0.17639000  0.03225000  1.0
  O  O861  1  0.80581000  0.04704000  0.14232000  1.0
  O  O862  1  0.70420000  0.17855000  0.16364000  1.0
  O  O863  1  0.26356000  0.51563000  0.40805000  1.0
  O  O864  1  0.33592000  0.66974000  0.41971000  1.0
  O  O865  1  0.16139000  0.65982000  0.37109000  1.0
  O  O866  1  0.62360000  0.59728000  0.33838000  1.0
  O  O867  1  0.68799000  0.60015000  0.49298000  1.0
  O  O868  1  0.76865000  0.69013000  0.36350000  1.0
  O  O869  1  0.15557000  0.91777000  0.83264000  1.0
  O  O870  1  0.06139000  0.80540000  0.89415000  1.0
  O  O871  1  0.21602000  0.76945000  0.80183000  1.0
  O  O872  1  0.62549000  0.41900000  0.65540000  1.0
  O  O873  1  0.71317000  0.40677000  0.51573000  1.0
  O  O874  1  0.77248000  0.32239000  0.64871000  1.0
  O  O875  1  0.17281000  0.06218000  0.04521000  1.0
  O  O876  1  0.23264000  0.94817000  0.14949000  1.0
  O  O877  1  0.29807000  0.09862000  0.18139000  1.0
