# generated using pymatgen
data_Cr3H90C84O13
_symmetry_space_group_name_H-M   'P 1'
_cell_length_a   23.00880000
_cell_length_b   25.23130000
_cell_length_c   26.26070000
_cell_angle_alpha   90.03200000
_cell_angle_beta   95.45700000
_cell_angle_gamma   90.08200000
_symmetry_Int_Tables_number   1
_chemical_formula_structural   Cr3H90C84O13
_chemical_formula_sum   'Cr12 H360 C336 O52'
_cell_volume   15176.32374886
_cell_formula_units_Z   4
loop_
 _symmetry_equiv_pos_site_id
 _symmetry_equiv_pos_as_xyz
  1  'x, y, z'
loop_
 _atom_site_type_symbol
 _atom_site_label
 _atom_site_symmetry_multiplicity
 _atom_site_fract_x
 _atom_site_fract_y
 _atom_site_fract_z
 _atom_site_occupancy
  C  C0  1  0.88302000  0.89421000  0.81951500  1.0
  C  C1  1  0.95872000  0.76269000  0.74618000  1.0
  C  C2  1  0.01814000  0.96987000  0.81439000  1.0
  C  C3  1  0.10998000  0.85044000  0.91190000  1.0
  C  C4  1  0.10321000  0.83237000  0.74827000  1.0
  C  C5  1  0.97535000  0.76833000  0.91089000  1.0
  C  C6  1  0.36999000  0.38945000  0.58739500  1.0
  C  C7  1  0.34267000  0.33190000  0.74234000  1.0
  C  C8  1  0.50148000  0.31238000  0.58539500  1.0
  C  C9  1  0.57797000  0.39005000  0.72938500  1.0
  C  C10  1  0.47004000  0.24656000  0.73229500  1.0
  C  C11  1  0.44633000  0.47345000  0.71735000  1.0
  C  C12  1  0.92952000  0.06394000  0.14641500  1.0
  C  C13  1  0.84956000  0.18552000  0.23636500  1.0
  C  C14  1  0.07027000  0.12760000  0.17816000  1.0
  C  C15  1  0.99884000  0.26778000  0.09033500  1.0
  C  C16  1  0.98556000  0.26168000  0.25091000  1.0
  C  C17  1  0.85627000  0.20288000  0.06799000  1.0
  C  C18  1  0.51818000  0.53880000  0.25887500  1.0
  C  C19  1  0.60961000  0.68245000  0.24913000  1.0
  C  C20  1  0.37692000  0.60594000  0.26867500  1.0
  C  C21  1  0.45893000  0.69605000  0.40592500  1.0
  C  C22  1  0.47148000  0.75610000  0.25748000  1.0
  C  C23  1  0.58338000  0.61252000  0.40741000  1.0
  C  C24  1  0.77703000  0.85493000  0.18735500  1.0
  C  C25  1  0.82188000  0.67786000  0.10904000  1.0
  C  C26  1  0.90180000  0.84856000  0.03736500  1.0
  C  C27  1  0.84489000  0.84871000  0.11585000  1.0
  C  C28  1  0.80744000  0.82363000  0.14816500  1.0
  C  C29  1  0.79748000  0.76841000  0.14325500  1.0
  C  C30  1  0.82670000  0.73798000  0.10837000  1.0
  C  C31  1  0.85944000  0.76420000  0.07312000  1.0
  C  C32  1  0.86739000  0.81991000  0.07593000  1.0
  C  C33  1  0.30015000  0.70557000  0.74428000  1.0
  C  C34  1  0.30876000  0.81615000  0.58315500  1.0
  C  C35  1  0.40860000  0.63689000  0.59616500  1.0
  C  C36  1  0.35753000  0.67419000  0.67114500  1.0
  C  C37  1  0.32091000  0.71239000  0.69133500  1.0
  C  C38  1  0.30169000  0.75661000  0.66090000  1.0
  C  C39  1  0.32432000  0.76607000  0.61348000  1.0
  C  C40  1  0.36008000  0.72739000  0.59340000  1.0
  C  C41  1  0.37468000  0.68034000  0.62098000  1.0
  C  C42  1  0.61671000  0.01818000  0.78665500  1.0
  C  C43  1  0.62529000  0.18551000  0.89406000  1.0
  C  C44  1  0.78506000  0.04545000  0.92521500  1.0
  C  C45  1  0.70081000  0.03395000  0.85592000  1.0
  C  C46  1  0.64791000  0.05138000  0.82904000  1.0
  C  C47  1  0.62487000  0.10148000  0.84071000  1.0
  C  C48  1  0.65045000  0.13143000  0.88256000  1.0
  C  C49  1  0.70197000  0.11283000  0.91035500  1.0
  C  C50  1  0.72763000  0.06433000  0.89710500  1.0
  C  C51  1  0.11774000  0.46385000  0.26216500  1.0
  C  C52  1  0.14372000  0.37920000  0.43883500  1.0
  C  C53  1  0.28191000  0.52517000  0.39274500  1.0
  C  C54  1  0.19812000  0.49405000  0.32934000  1.0
  C  C55  1  0.14877000  0.46153000  0.31584500  1.0
  C  C56  1  0.13241000  0.42282000  0.35100500  1.0
  C  C57  1  0.16202000  0.41978000  0.40070000  1.0
  C  C58  1  0.21173000  0.45183000  0.41342500  1.0
  C  C59  1  0.22824000  0.49077000  0.37892000  1.0
  C  C60  1  0.64927000  0.20375000  0.40820500  1.0
  C  C61  1  0.66678000  0.30887000  0.24503500  1.0
  C  C62  1  0.51504000  0.36089000  0.36464000  1.0
  C  C63  1  0.58329000  0.28255000  0.38479500  1.0
  C  C64  1  0.62685000  0.24707000  0.37127000  1.0
  C  C65  1  0.65289000  0.25526000  0.32514000  1.0
  C  C66  1  0.63541000  0.29831000  0.29251000  1.0
  C  C67  1  0.59210000  0.33364000  0.30658500  1.0
  C  C68  1  0.56347000  0.32396000  0.35104000  1.0
  C  C69  1  0.34562000  0.85556000  0.08725500  1.0
  C  C70  1  0.32623000  0.98779000  0.22964000  1.0
  C  C71  1  0.15834000  0.96349000  0.09121000  1.0
  C  C72  1  0.25408000  0.91296000  0.08823500  1.0
  C  C73  1  0.30894000  0.89659000  0.11202000  1.0
  C  C74  1  0.32873000  0.91722000  0.16083500  1.0
  C  C75  1  0.30012000  0.96096000  0.18106000  1.0
  C  C76  1  0.24589000  0.97775000  0.15661500  1.0
  C  C77  1  0.22066000  0.95084000  0.11258500  1.0
  C  C78  1  0.82346000  0.54441000  0.74693000  1.0
  C  C79  1  0.77585000  0.65634000  0.58840500  1.0
  C  C80  1  0.65943000  0.48689000  0.61436500  1.0
  C  C81  1  0.73891000  0.51924000  0.68106500  1.0
  C  C82  1  0.78542000  0.55392000  0.69724000  1.0
  C  C83  1  0.79645000  0.59848000  0.66684000  1.0
  C  C84  1  0.76392000  0.60683000  0.61892500  1.0
  C  C85  1  0.71988000  0.57009000  0.60115000  1.0
  C  C86  1  0.70718000  0.52634000  0.63232500  1.0
  C  C87  1  0.12932000  0.19872000  0.76821000  1.0
  C  C88  1  0.13652000  0.35075000  0.89386500  1.0
  C  C89  1  0.04335000  0.17686000  0.94018000  1.0
  C  C90  1  0.08346000  0.18905000  0.85304000  1.0
  C  C91  1  0.11532000  0.21983000  0.81992000  1.0
  C  C92  1  0.13701000  0.27016000  0.83628000  1.0
  C  C93  1  0.11811000  0.29424000  0.88033500  1.0
  C  C94  1  0.08552000  0.26411000  0.91290500  1.0
  C  C95  1  0.07085000  0.21057000  0.90083000  1.0
  C  C96  1  0.95069000  0.73319000  0.94845000  1.0
  C  C97  1  0.88862000  0.73427000  0.03394000  1.0
  C  C98  1  0.98137000  0.72874000  0.99735500  1.0
  C  C99  1  0.04709000  0.73200000  0.00248500  1.0
  C  C100  1  0.89067000  0.72116000  0.94218000  1.0
  C  C101  1  0.86138000  0.70736000  0.88990000  1.0
  C  C102  1  0.94994000  0.72841000  0.04097500  1.0
  C  C103  1  0.98196000  0.73020000  0.09422000  1.0
  C  C104  1  0.85829000  0.72414000  0.98534000  1.0
  C  C105  1  0.79217000  0.72602000  0.97852500  1.0
  C  C106  1  0.42563000  0.52710000  0.72848000  1.0
  C  C107  1  0.37831000  0.62672000  0.70148000  1.0
  C  C108  1  0.36473000  0.53480000  0.72698500  1.0
  C  C109  1  0.32620000  0.48940000  0.74117000  1.0
  C  C110  1  0.46314000  0.57121000  0.72508500  1.0
  C  C111  1  0.52884000  0.56444000  0.72967000  1.0
  C  C112  1  0.34056000  0.58299000  0.70719500  1.0
  C  C113  1  0.27530000  0.58732000  0.69209500  1.0
  C  C114  1  0.43865000  0.62231000  0.71739000  1.0
  C  C115  1  0.47742000  0.67116000  0.71926000  1.0
  C  C116  1  0.80757000  0.19681000  0.02664000  1.0
  C  C117  1  0.73349000  0.14727000  0.94968500  1.0
  C  C118  1  0.81862000  0.20239000  0.97448000  1.0
  C  C119  1  0.87069000  0.23352000  0.95911500  1.0
  C  C120  1  0.75308000  0.17603000  0.03837500  1.0
  C  C121  1  0.73317000  0.18353000  0.09123000  1.0
  C  C122  1  0.77969000  0.17952000  0.93562500  1.0
  C  C123  1  0.79156000  0.18350000  0.87961500  1.0
  C  C124  1  0.71931000  0.14582000  0.00089500  1.0
  C  C125  1  0.66825000  0.11257000  0.01541500  1.0
  C  C126  1  0.31761000  0.58345000  0.25532500  1.0
  C  C127  1  0.22642000  0.52446000  0.28957500  1.0
  C  C128  1  0.31270000  0.52931000  0.24244000  1.0
  C  C129  1  0.35962000  0.50325000  0.21490500  1.0
  C  C130  1  0.26803000  0.61018000  0.27002500  1.0
  C  C131  1  0.26550000  0.66992000  0.26758000  1.0
  C  C132  1  0.26817000  0.49872000  0.26168000  1.0
  C  C133  1  0.26929000  0.43888000  0.25591000  1.0
  C  C134  1  0.22168000  0.58040000  0.28770000  1.0
  C  C135  1  0.17202000  0.60810000  0.31089500  1.0
  C  C136  1  0.52659000  0.30042000  0.53598500  1.0
  C  C137  1  0.56700000  0.28400000  0.43852500  1.0
  C  C138  1  0.56598000  0.33694000  0.51585500  1.0
  C  C139  1  0.57801000  0.39140000  0.53939000  1.0
  C  C140  1  0.50850000  0.25487000  0.50646500  1.0
  C  C141  1  0.47199000  0.21185000  0.52832000  1.0
  C  C142  1  0.59291000  0.32323000  0.47169500  1.0
  C  C143  1  0.64618000  0.35358000  0.45784000  1.0
  C  C144  1  0.52264000  0.25099000  0.45505000  1.0
  C  C145  1  0.49142000  0.21110000  0.41872000  1.0
  C  C146  1  0.12870000  0.10198000  0.18594500  1.0
  C  C147  1  0.21477000  0.02472000  0.17527500  1.0
  C  C148  1  0.16936000  0.10885000  0.14902500  1.0
  C  C149  1  0.16435000  0.15462000  0.11146000  1.0
  C  C150  1  0.13873000  0.06194000  0.22366500  1.0
  C  C151  1  0.10490000  0.06205000  0.27055000  1.0
  C  C152  1  0.21576000  0.07239000  0.14712000  1.0
  C  C153  1  0.26197000  0.08110000  0.11030500  1.0
  C  C154  1  0.17706000  0.01965000  0.21466500  1.0
  C  C155  1  0.17590000  0.96897000  0.24572000  1.0
  C  C156  1  0.61789000  0.59575000  0.45571500  1.0
  C  C157  1  0.68477000  0.57884000  0.55074000  1.0
  C  C158  1  0.67850000  0.58451000  0.45722000  1.0
  C  C159  1  0.70980000  0.58664000  0.40915000  1.0
  C  C160  1  0.59087000  0.59660000  0.50212500  1.0
  C  C161  1  0.52509000  0.60070000  0.50157500  1.0
  C  C162  1  0.70988000  0.56969000  0.50427000  1.0
  C  C163  1  0.77155000  0.54799000  0.50514000  1.0
  C  C164  1  0.62599000  0.59584000  0.54946000  1.0
  C  C165  1  0.59978000  0.61038000  0.59860500  1.0
  C  C166  1  0.03347000  0.02722000  0.81376500  1.0
  C  C167  1  0.06599000  0.13322000  0.83868000  1.0
  C  C168  1  0.98975000  0.06633000  0.81834500  1.0
  C  C169  1  0.92523000  0.05211000  0.81068000  1.0
  C  C170  1  0.09289000  0.04265000  0.81669500  1.0
  C  C171  1  0.13751000  0.00860000  0.79276000  1.0
  C  C172  1  0.00629000  0.12028000  0.82601500  1.0
  C  C173  1  0.95990000  0.16334000  0.82414500  1.0
  C  C174  1  0.10923000  0.09348000  0.83602500  1.0
  C  C175  1  0.17287000  0.10471000  0.85351000  1.0
  C  C176  1  0.02780000  0.30418000  0.05632000  1.0
  C  C177  1  0.06941000  0.28716000  0.96197000  1.0
  C  C178  1  0.08801000  0.29755000  0.05437500  1.0
  C  C179  1  0.12770000  0.30250000  0.10342500  1.0
  C  C180  1  0.99479000  0.32329000  0.01240000  1.0
  C  C181  1  0.94147000  0.35696000  0.01838500  1.0
  C  C182  1  0.10855000  0.28366000  0.00712000  1.0
  C  C183  1  0.17088000  0.26513000  0.00491500  1.0
  C  C184  1  0.01396000  0.31137000  0.96395000  1.0
  C  C185  1  0.97582000  0.32187000  0.91463000  1.0
  C  C186  1  0.55033000  0.48905000  0.25070500  1.0
  C  C187  1  0.58375000  0.38607000  0.28049500  1.0
  C  C188  1  0.60385000  0.48127000  0.28026500  1.0
  C  C189  1  0.64122000  0.52881000  0.29651500  1.0
  C  C190  1  0.52242000  0.44550000  0.22500000  1.0
  C  C191  1  0.47972000  0.45462000  0.17852000  1.0
  C  C192  1  0.61927000  0.42979000  0.29791000  1.0
  C  C193  1  0.67320000  0.42246000  0.33527500  1.0
  C  C194  1  0.53894000  0.39325000  0.24015500  1.0
  C  C195  1  0.50540000  0.34600000  0.21658500  1.0
  C  C196  1  0.16445000  0.86085000  0.94643500  1.0
  C  C197  1  0.23115000  0.89224000  0.03690500  1.0
  C  C198  1  0.18725000  0.82223000  0.98183500  1.0
  C  C199  1  0.19070000  0.76434000  0.96745500  1.0
  C  C200  1  0.18854000  0.91272000  0.95038000  1.0
  C  C201  1  0.17449000  0.95312000  0.90844500  1.0
  C  C202  1  0.21154000  0.83910000  0.03058000  1.0
  C  C203  1  0.21656000  0.79988000  0.07458000  1.0
  C  C204  1  0.22552000  0.92719000  0.99446000  1.0
  C  C205  1  0.25561000  0.98097000  0.99686500  1.0
  C  C206  1  0.63859000  0.40474000  0.74767000  1.0
  C  C207  1  0.71861000  0.47782000  0.71633000  1.0
  C  C208  1  0.68385000  0.38662000  0.71950500  1.0
  C  C209  1  0.68134000  0.33056000  0.69909500  1.0
  C  C210  1  0.64561000  0.45325000  0.77386000  1.0
  C  C211  1  0.60858000  0.46406000  0.81733000  1.0
  C  C212  1  0.72615000  0.42336000  0.70531500  1.0
  C  C213  1  0.77496000  0.40560000  0.67433500  1.0
  C  C214  1  0.68186000  0.49247000  0.75452500  1.0
  C  C215  1  0.68001000  0.54970000  0.77223000  1.0
  C  C216  1  0.42935000  0.71912000  0.44845000  1.0
  C  C217  1  0.37974000  0.73379000  0.54131000  1.0
  C  C218  1  0.36950000  0.70752000  0.45135000  1.0
  C  C219  1  0.33303000  0.68472000  0.40534000  1.0
  C  C220  1  0.46257000  0.74416000  0.49005000  1.0
  C  C221  1  0.52616000  0.75872000  0.48559500  1.0
  C  C222  1  0.34523000  0.71247000  0.49857500  1.0
  C  C223  1  0.28313000  0.69333000  0.50321500  1.0
  C  C224  1  0.43641000  0.75385000  0.53601000  1.0
  C  C225  1  0.47084000  0.78073000  0.58110500  1.0
  C  C226  1  0.82169000  0.91531000  0.81744500  1.0
  C  C227  1  0.73369000  0.98795000  0.83702500  1.0
  C  C228  1  0.78472000  0.90417000  0.85659000  1.0
  C  C229  1  0.79501000  0.85558000  0.89008500  1.0
  C  C230  1  0.80286000  0.95387000  0.78023000  1.0
  C  C231  1  0.82288000  0.95264000  0.72686500  1.0
  C  C232  1  0.73887000  0.93991000  0.86514500  1.0
  C  C233  1  0.69824000  0.92806000  0.90609000  1.0
  C  C234  1  0.76587000  0.99485000  0.79411000  1.0
  C  C235  1  0.76326000  0.04681000  0.76489000  1.0
  C  C236  1  0.32914000  0.40615000  0.54355000  1.0
  C  C237  1  0.25291000  0.43732000  0.45854500  1.0
  C  C238  1  0.29078000  0.44936000  0.54808000  1.0
  C  C239  1  0.29297000  0.48075000  0.59747000  1.0
  C  C240  1  0.33038000  0.37943000  0.49629500  1.0
  C  C241  1  0.36907000  0.33112000  0.49274000  1.0
  C  C242  1  0.24899000  0.46197000  0.50660000  1.0
  C  C243  1  0.20336000  0.50448000  0.51246000  1.0
  C  C244  1  0.29664000  0.39883000  0.45257000  1.0
  C  C245  1  0.30690000  0.37719000  0.40018000  1.0
  C  C246  1  0.90720000  0.00899000  0.13901500  1.0
  C  C247  1  0.86461000  0.90439000  0.12556500  1.0
  C  C248  1  0.94317000  0.96548000  0.15558500  1.0
  C  C249  1  0.00660000  0.97402000  0.17595500  1.0
  C  C250  1  0.85009000  0.99994000  0.11476500  1.0
  C  C251  1  0.81050000  0.04621000  0.09809000  1.0
  C  C252  1  0.91961000  0.91358000  0.15319000  1.0
  C  C253  1  0.95494000  0.86741000  0.17701500  1.0
  C  C254  1  0.83075000  0.94728000  0.10441500  1.0
  C  C255  1  0.77293000  0.93691000  0.07285000  1.0
  C  C256  1  0.91790000  0.72011000  0.72544500  1.0
  C  C257  1  0.83884000  0.63981000  0.68767000  1.0
  C  C258  1  0.93777000  0.67744000  0.69615500  1.0
  C  C259  1  0.00103000  0.67441000  0.68423500  1.0
  C  C260  1  0.85845000  0.72191000  0.73640000  1.0
  C  C261  1  0.83713000  0.76654000  0.76908500  1.0
  C  C262  1  0.89848000  0.63631000  0.67877500  1.0
  C  C263  1  0.91992000  0.59021000  0.64811500  1.0
  C  C264  1  0.81844000  0.68293000  0.71567000  1.0
  C  C265  1  0.75426000  0.68648000  0.72542000  1.0
  C  C266  1  0.28959000  0.32514000  0.76918500  1.0
  C  C267  1  0.18902000  0.29231000  0.81383500  1.0
  C  C268  1  0.23369000  0.33650000  0.74417500  1.0
  C  C269  1  0.22749000  0.36331000  0.69209500  1.0
  C  C270  1  0.29516000  0.30365000  0.81913500  1.0
  C  C271  1  0.35493000  0.30173000  0.84946000  1.0
  C  C272  1  0.18301000  0.32204000  0.76781000  1.0
  C  C273  1  0.12315000  0.33857000  0.74351500  1.0
  C  C274  1  0.24528000  0.28249000  0.83930500  1.0
  C  C275  1  0.25273000  0.24987000  0.88822500  1.0
  C  C276  1  0.80262000  0.18480000  0.27090000  1.0
  C  C277  1  0.70472000  0.22369000  0.31378000  1.0
  C  C278  1  0.74736000  0.16240000  0.25566500  1.0
  C  C279  1  0.74103000  0.11819000  0.21650000  1.0
  C  C280  1  0.81041000  0.21589000  0.31555000  1.0
  C  C281  1  0.87136000  0.22544000  0.34113000  1.0
  C  C282  1  0.69794000  0.18075000  0.27887000  1.0
  C  C283  1  0.63747000  0.15927000  0.26206000  1.0
  C  C284  1  0.76131000  0.23986000  0.33408500  1.0
  C  C285  1  0.76972000  0.28247000  0.37494500  1.0
  C  C286  1  0.44228000  0.80667000  0.24310500  1.0
  C  C287  1  0.37041000  0.88509000  0.19496000  1.0
  C  C288  1  0.46628000  0.84315000  0.20989500  1.0
  C  C289  1  0.52907000  0.83705000  0.19745500  1.0
  C  C290  1  0.38611000  0.81508000  0.25859500  1.0
  C  C291  1  0.36773000  0.78556000  0.30465000  1.0
  C  C292  1  0.43127000  0.88602000  0.18981500  1.0
  C  C293  1  0.45800000  0.93087000  0.16139500  1.0
  C  C294  1  0.34759000  0.84937000  0.22976000  1.0
  C  C295  1  0.28268000  0.84754000  0.23650000  1.0
  C  C296  1  0.50292000  0.19887000  0.75065000  1.0
  C  C297  1  0.58027000  0.12763000  0.80409000  1.0
  C  C298  1  0.55873000  0.19053000  0.73378500  1.0
  C  C299  1  0.57486000  0.21878000  0.68581000  1.0
  C  C300  1  0.48224000  0.16543000  0.78829000  1.0
  C  C301  1  0.41942000  0.16901000  0.80122500  1.0
  C  C302  1  0.59918000  0.15797000  0.76309500  1.0
  C  C303  1  0.66267000  0.15785000  0.75159500  1.0
  C  C304  1  0.52079000  0.12829000  0.81412500  1.0
  C  C305  1  0.49956000  0.09340000  0.85578500  1.0
  C  C306  1  0.01966000  0.29817000  0.28659000  1.0
  C  C307  1  0.09268000  0.37852000  0.33229500  1.0
  C  C308  1  0.07975000  0.28781000  0.29935000  1.0
  C  C309  1  0.10482000  0.23384000  0.28776000  1.0
  C  C310  1  0.99503000  0.34680000  0.30154000  1.0
  C  C311  1  0.93016000  0.35832000  0.29034500  1.0
  C  C312  1  0.11700000  0.32950000  0.31817000  1.0
  C  C313  1  0.18261000  0.32090000  0.32285500  1.0
  C  C314  1  0.03135000  0.38535000  0.32803000  1.0
  C  C315  1  0.00470000  0.43509000  0.34883000  1.0
  C  C316  1  0.66185000  0.69327000  0.22014500  1.0
  C  C317  1  0.75139000  0.74283000  0.17085500  1.0
  C  C318  1  0.71936000  0.69638000  0.24527500  1.0
  C  C319  1  0.73350000  0.66977000  0.29667500  1.0
  C  C320  1  0.65378000  0.70448000  0.16677500  1.0
  C  C321  1  0.60195000  0.68253000  0.13294000  1.0
  C  C322  1  0.76402000  0.72260000  0.22101000  1.0
  C  C323  1  0.82520000  0.72751000  0.24818000  1.0
  C  C324  1  0.69570000  0.73521000  0.14425000  1.0
  C  C325  1  0.68157000  0.75798000  0.09081000  1.0
  C  C326  1  0.15385000  0.83129000  0.71711500  1.0
  C  C327  1  0.25184000  0.78881000  0.67587500  1.0
  C  C328  1  0.21072000  0.84404000  0.73964000  1.0
  C  C329  1  0.21961000  0.87555000  0.78899500  1.0
  C  C330  1  0.14741000  0.80784000  0.66800000  1.0
  C  C331  1  0.08996000  0.81097000  0.63479500  1.0
  C  C332  1  0.26005000  0.82632000  0.71604000  1.0
  C  C333  1  0.32081000  0.84542000  0.73552500  1.0
  C  C334  1  0.19506000  0.77944000  0.65152000  1.0
  C  C335  1  0.18491000  0.73895000  0.60873000  1.0
  Cr  Cr336  1  0.98483000  0.87451000  0.75967500  1.0
  Cr  Cr337  1  0.99030000  0.88187000  0.88407500  1.0
  Cr  Cr338  1  0.05078000  0.78115000  0.83113000  1.0
  Cr  Cr339  1  0.40354000  0.30267000  0.65181000  1.0
  Cr  Cr340  1  0.48748000  0.40423000  0.64245500  1.0
  Cr  Cr341  1  0.46332000  0.36249000  0.75561000  1.0
  Cr  Cr342  1  0.96427000  0.14767000  0.22402500  1.0
  Cr  Cr343  1  0.97286000  0.15743000  0.10117000  1.0
  Cr  Cr344  1  0.90733000  0.24994000  0.16001000  1.0
  Cr  Cr345  1  0.48757000  0.64684000  0.23563500  1.0
  Cr  Cr346  1  0.47268000  0.59563000  0.34747000  1.0
  Cr  Cr347  1  0.55027000  0.70448000  0.33796500  1.0
  H  H348  1  0.88967000  0.89091000  0.03267500  1.0
  H  H349  1  0.94909000  0.84648000  0.05027500  1.0
  H  H350  1  0.72909000  0.85340000  0.17708500  1.0
  H  H351  1  0.78569000  0.83669000  0.22574000  1.0
  H  H352  1  0.79011000  0.89714000  0.19069000  1.0
  H  H353  1  0.82983000  0.66301000  0.14887000  1.0
  H  H354  1  0.77698000  0.66564000  0.09456500  1.0
  H  H355  1  0.85306000  0.65756000  0.08593000  1.0
  H  H356  1  0.89490000  0.83054000  0.99875500  1.0
  H  H357  1  0.40743000  0.59780000  0.61522000  1.0
  H  H358  1  0.39112000  0.63012000  0.55588500  1.0
  H  H359  1  0.25185000  0.70155000  0.74096000  1.0
  H  H360  1  0.31158000  0.74094000  0.76804000  1.0
  H  H361  1  0.31927000  0.67122000  0.76605000  1.0
  H  H362  1  0.34763000  0.83254000  0.56663500  1.0
  H  H363  1  0.27591000  0.80661000  0.55073500  1.0
  H  H364  1  0.29105000  0.84789000  0.60649500  1.0
  H  H365  1  0.45484000  0.64936000  0.59586500  1.0
  H  H366  1  0.77785000  0.00765000  0.94513500  1.0
  H  H367  1  0.81771000  0.03793000  0.89752500  1.0
  H  H368  1  0.63237000  0.97662000  0.78641000  1.0
  H  H369  1  0.56911000  0.01728000  0.79064000  1.0
  H  H370  1  0.62230000  0.03647000  0.74902500  1.0
  H  H371  1  0.57724000  0.18314000  0.89457500  1.0
  H  H372  1  0.64275000  0.20283000  0.93116500  1.0
  H  H373  1  0.63450000  0.21373000  0.86339500  1.0
  H  H374  1  0.80531000  0.07297000  0.95457500  1.0
  H  H375  1  0.27226000  0.56704000  0.38278500  1.0
  H  H376  1  0.29786000  0.52465000  0.43389000  1.0
  H  H377  1  0.13077000  0.42915000  0.23985500  1.0
  H  H378  1  0.06978000  0.46189000  0.26315000  1.0
  H  H379  1  0.12744000  0.50049000  0.24123000  1.0
  H  H380  1  0.17089000  0.34309000  0.43681000  1.0
  H  H381  1  0.15028000  0.39457000  0.47858000  1.0
  H  H382  1  0.09710000  0.36776000  0.43137000  1.0
  H  H383  1  0.31805000  0.51199000  0.37058500  1.0
  H  H384  1  0.48593000  0.34225000  0.39088500  1.0
  H  H385  1  0.53466000  0.39704000  0.38330500  1.0
  H  H386  1  0.61391000  0.18658000  0.42877500  1.0
  H  H387  1  0.67006000  0.17057000  0.38901000  1.0
  H  H388  1  0.68196000  0.22100000  0.43737500  1.0
  H  H389  1  0.67249000  0.27175000  0.22344500  1.0
  H  H390  1  0.64357000  0.33715000  0.21798000  1.0
  H  H391  1  0.71090000  0.32508000  0.25687000  1.0
  H  H392  1  0.48710000  0.37349000  0.33003000  1.0
  H  H393  1  0.13724000  0.93039000  0.06852000  1.0
  H  H394  1  0.13014000  0.97222000  0.12217000  1.0
  H  H395  1  0.33031000  0.84633000  0.04697000  1.0
  H  H396  1  0.39107000  0.86968000  0.08710500  1.0
  H  H397  1  0.34690000  0.81831000  0.10981000  1.0
  H  H398  1  0.37435000  0.98290000  0.23526000  1.0
  H  H399  1  0.31665000  0.03090000  0.22947500  1.0
  H  H400  1  0.30744000  0.96990000  0.26299000  1.0
  H  H401  1  0.15838000  0.99903000  0.06635000  1.0
  H  H402  1  0.67895000  0.44723000  0.61086000  1.0
  H  H403  1  0.62681000  0.48428000  0.64280500  1.0
  H  H404  1  0.81844000  0.57774000  0.77377000  1.0
  H  H405  1  0.81392000  0.50677000  0.76625000  1.0
  H  H406  1  0.87011000  0.54349000  0.73944000  1.0
  H  H407  1  0.74685000  0.66160000  0.55266000  1.0
  H  H408  1  0.77087000  0.69225000  0.61199500  1.0
  H  H409  1  0.82167000  0.65563000  0.57848500  1.0
  H  H410  1  0.63569000  0.49532000  0.57669000  1.0
  H  H411  1  0.03826000  0.13441000  0.92995000  1.0
  H  H412  1  0.07043000  0.17875000  0.97747000  1.0
  H  H413  1  0.10364000  0.16327000  0.75508500  1.0
  H  H414  1  0.12034000  0.22929000  0.73829500  1.0
  H  H415  1  0.17651000  0.18914000  0.76966000  1.0
  H  H416  1  0.13910000  0.37502000  0.85889000  1.0
  H  H417  1  0.10617000  0.37097000  0.91788000  1.0
  H  H418  1  0.18051000  0.35042000  0.91520000  1.0
  H  H419  1  0.99985000  0.19306000  0.94648000  1.0
  H  H420  1  0.06124000  0.77322000  0.01206500  1.0
  H  H421  1  0.06417000  0.71983000  0.96610000  1.0
  H  H422  1  0.06683000  0.70445000  0.03210000  1.0
  H  H423  1  0.84115000  0.66748000  0.89123500  1.0
  H  H424  1  0.89264000  0.70541000  0.86033000  1.0
  H  H425  1  0.82689000  0.73646000  0.87804000  1.0
  H  H426  1  0.00569000  0.76839000  0.10004500  1.0
  H  H427  1  0.01340000  0.69692000  0.09951000  1.0
  H  H428  1  0.95219000  0.72566000  0.12478000  1.0
  H  H429  1  0.77358000  0.70083000  0.94640000  1.0
  H  H430  1  0.77758000  0.76755000  0.97168500  1.0
  H  H431  1  0.77315000  0.71077000  0.01272500  1.0
  H  H432  1  0.34851000  0.46618000  0.77318000  1.0
  H  H433  1  0.31606000  0.46285000  0.70791500  1.0
  H  H434  1  0.28498000  0.50381000  0.75508500  1.0
  H  H435  1  0.54281000  0.52362000  0.72132000  1.0
  H  H436  1  0.54644000  0.57529000  0.76905500  1.0
  H  H437  1  0.54910000  0.59031000  0.70211000  1.0
  H  H438  1  0.25270000  0.59920000  0.72580000  1.0
  H  H439  1  0.25666000  0.54908000  0.67752000  1.0
  H  H440  1  0.26472000  0.61608000  0.66068500  1.0
  H  H441  1  0.49689000  0.67604000  0.68246000  1.0
  H  H442  1  0.51297000  0.66817000  0.75082000  1.0
  H  H443  1  0.45262000  0.70757000  0.72703500  1.0
  H  H444  1  0.89707000  0.20844000  0.93539000  1.0
  H  H445  1  0.90013000  0.24840000  0.99141000  1.0
  H  H446  1  0.85515000  0.26908000  0.93702500  1.0
  H  H447  1  0.74000000  0.22527000  0.10383500  1.0
  H  H448  1  0.75804000  0.15669000  0.11841500  1.0
  H  H449  1  0.68580000  0.17643000  0.09266000  1.0
  H  H450  1  0.82112000  0.15094000  0.87012500  1.0
  H  H451  1  0.81127000  0.22197000  0.87033000  1.0
  H  H452  1  0.75078000  0.18125000  0.85365500  1.0
  H  H453  1  0.62883000  0.13785000  0.01571500  1.0
  H  H454  1  0.67837000  0.09423000  0.05366000  1.0
  H  H455  1  0.65787000  0.07881000  0.98904000  1.0
  H  H456  1  0.39520000  0.48973000  0.24337000  1.0
  H  H457  1  0.37670000  0.53106000  0.18724500  1.0
  H  H458  1  0.34272000  0.46917000  0.19129500  1.0
  H  H459  1  0.26830000  0.68698000  0.30658500  1.0
  H  H460  1  0.22411000  0.68290000  0.24611000  1.0
  H  H461  1  0.30089000  0.68616000  0.24626000  1.0
  H  H462  1  0.26203000  0.42802000  0.21483000  1.0
  H  H463  1  0.23515000  0.41822000  0.27464000  1.0
  H  H464  1  0.31193000  0.42294000  0.27250500  1.0
  H  H465  1  0.15305000  0.63972000  0.28513500  1.0
  H  H466  1  0.18820000  0.62581000  0.34831500  1.0
  H  H467  1  0.13551000  0.58067000  0.31682000  1.0
  H  H468  1  0.60997000  0.38771000  0.57353500  1.0
  H  H469  1  0.53700000  0.41014000  0.54943000  1.0
  H  H470  1  0.59524000  0.42014000  0.51261000  1.0
  H  H471  1  0.42487000  0.22119000  0.52054000  1.0
  H  H472  1  0.48331000  0.20717000  0.57008500  1.0
  H  H473  1  0.48050000  0.17251000  0.51165500  1.0
  H  H474  1  0.67402000  0.36601000  0.49269500  1.0
  H  H475  1  0.63246000  0.38914000  0.43500500  1.0
  H  H476  1  0.67455000  0.32845000  0.43619000  1.0
  H  H477  1  0.44440000  0.20884000  0.42496000  1.0
  H  H478  1  0.51124000  0.17128000  0.42492500  1.0
  H  H479  1  0.49275000  0.22214000  0.37797000  1.0
  H  H480  1  0.20044000  0.18318000  0.12120000  1.0
  H  H481  1  0.12310000  0.17673000  0.11134000  1.0
  H  H482  1  0.16648000  0.13997000  0.07178500  1.0
  H  H483  1  0.05930000  0.04888000  0.26039000  1.0
  H  H484  1  0.10498000  0.10246000  0.28728500  1.0
  H  H485  1  0.12516000  0.03665000  0.30177000  1.0
  H  H486  1  0.27662000  0.12303000  0.11096500  1.0
  H  H487  1  0.24411000  0.07052000  0.07091000  1.0
  H  H488  1  0.30194000  0.05738000  0.12073000  1.0
  H  H489  1  0.13051000  0.95876000  0.25317500  1.0
  H  H490  1  0.20303000  0.97397000  0.28267500  1.0
  H  H491  1  0.19182000  0.93406000  0.22563000  1.0
  H  H492  1  0.75358000  0.60510000  0.41711500  1.0
  H  H493  1  0.68640000  0.61133000  0.37916500  1.0
  H  H494  1  0.71504000  0.54597000  0.39422000  1.0
  H  H495  1  0.50255000  0.57966000  0.46830500  1.0
  H  H496  1  0.51184000  0.64279000  0.50130500  1.0
  H  H497  1  0.50912000  0.58106000  0.53541000  1.0
  H  H498  1  0.80331000  0.58118000  0.50562000  1.0
  H  H499  1  0.77638000  0.52259000  0.47129000  1.0
  H  H500  1  0.78304000  0.52220000  0.53882000  1.0
  H  H501  1  0.57740000  0.57546000  0.61347000  1.0
  H  H502  1  0.56789000  0.64323000  0.59192500  1.0
  H  H503  1  0.63316000  0.62505000  0.62862500  1.0
  H  H504  1  0.90087000  0.07214000  0.83973000  1.0
  H  H505  1  0.91599000  0.00940000  0.81417000  1.0
  H  H506  1  0.90712000  0.06467000  0.77189000  1.0
  H  H507  1  0.12592000  0.96623000  0.79110000  1.0
  H  H508  1  0.18167000  0.01079000  0.81334500  1.0
  H  H509  1  0.14064000  0.02230000  0.75295000  1.0
  H  H510  1  0.94020000  0.16475000  0.86108000  1.0
  H  H511  1  0.92494000  0.15596000  0.79283000  1.0
  H  H512  1  0.97747000  0.20311000  0.81607500  1.0
  H  H513  1  0.19819000  0.11045000  0.82002000  1.0
  H  H514  1  0.19189000  0.07127000  0.87693500  1.0
  H  H515  1  0.17873000  0.13966000  0.87893500  1.0
  H  H516  1  0.13653000  0.26342000  0.12125500  1.0
  H  H517  1  0.10733000  0.32790000  0.13142000  1.0
  H  H518  1  0.16959000  0.32167000  0.09615000  1.0
  H  H519  1  0.94089000  0.37117000  0.05839500  1.0
  H  H520  1  0.90055000  0.33492000  0.00767000  1.0
  H  H521  1  0.94242000  0.39294000  0.99415000  1.0
  H  H522  1  0.17379000  0.23357000  0.97591000  1.0
  H  H523  1  0.18916000  0.24741000  0.04161000  1.0
  H  H524  1  0.19865000  0.29917000  0.99582000  1.0
  H  H525  1  0.99859000  0.34932000  0.89012000  1.0
  H  H526  1  0.93300000  0.33960000  0.92056500  1.0
  H  H527  1  0.96669000  0.28410000  0.89360500  1.0
  H  H528  1  0.62930000  0.54291000  0.33390000  1.0
  H  H529  1  0.63492000  0.56145000  0.26822000  1.0
  H  H530  1  0.68846000  0.51922000  0.29916000  1.0
  H  H531  1  0.46928000  0.49714000  0.17233000  1.0
  H  H532  1  0.43882000  0.43211000  0.18170500  1.0
  H  H533  1  0.49948000  0.44071000  0.14394000  1.0
  H  H534  1  0.71294000  0.42647000  0.31468000  1.0
  H  H535  1  0.67516000  0.38363000  0.35450000  1.0
  H  H536  1  0.67434000  0.45245000  0.36633000  1.0
  H  H537  1  0.49856000  0.34978000  0.17434500  1.0
  H  H538  1  0.46234000  0.34323000  0.23226500  1.0
  H  H539  1  0.52883000  0.30799000  0.22393000  1.0
  H  H540  1  0.18601000  0.75808000  0.92548500  1.0
  H  H541  1  0.15846000  0.74056000  0.98584000  1.0
  H  H542  1  0.23467000  0.74874000  0.98074000  1.0
  H  H543  1  0.14507000  0.98409000  0.92162000  1.0
  H  H544  1  0.15343000  0.93486000  0.87323000  1.0
  H  H545  1  0.21485000  0.97184000  0.89696500  1.0
  H  H546  1  0.25599000  0.77492000  0.07293000  1.0
  H  H547  1  0.17759000  0.77364000  0.07245000  1.0
  H  H548  1  0.21829000  0.81958000  0.11244500  1.0
  H  H549  1  0.22258000  0.01309000  0.99552500  1.0
  H  H550  1  0.28229000  0.98543000  0.96408000  1.0
  H  H551  1  0.28655000  0.98656000  0.03145000  1.0
  H  H552  1  0.65696000  0.32971000  0.66051000  1.0
  H  H553  1  0.65934000  0.30430000  0.72524000  1.0
  H  H554  1  0.72548000  0.31365000  0.69690000  1.0
  H  H555  1  0.59482000  0.42638000  0.83454000  1.0
  H  H556  1  0.56887000  0.48653000  0.80366500  1.0
  H  H557  1  0.63400000  0.48632000  0.84844000  1.0
  H  H558  1  0.75689000  0.38946000  0.63678000  1.0
  H  H559  1  0.80122000  0.37443000  0.69559500  1.0
  H  H560  1  0.80574000  0.43816000  0.66745500  1.0
  H  H561  1  0.72112000  0.55966000  0.79574000  1.0
  H  H562  1  0.64385000  0.55809000  0.79586500  1.0
  H  H563  1  0.67389000  0.57702000  0.73902500  1.0
  H  H564  1  0.33183000  0.64092000  0.40843000  1.0
  H  H565  1  0.35089000  0.69533000  0.36906500  1.0
  H  H566  1  0.28787000  0.70060000  0.40231000  1.0
  H  H567  1  0.54927000  0.72703000  0.46643000  1.0
  H  H568  1  0.55216000  0.76359000  0.52300000  1.0
  H  H569  1  0.52826000  0.79607000  0.46352000  1.0
  H  H570  1  0.25166000  0.72258000  0.48507500  1.0
  H  H571  1  0.27278000  0.68728000  0.54305500  1.0
  H  H572  1  0.27551000  0.65419000  0.48434000  1.0
  H  H573  1  0.49468000  0.81578000  0.56816000  1.0
  H  H574  1  0.50221000  0.75217000  0.60060500  1.0
  H  H575  1  0.44269000  0.79633000  0.60965500  1.0
  H  H576  1  0.81924000  0.82490000  0.87077000  1.0
  H  H577  1  0.75343000  0.83632000  0.89785000  1.0
  H  H578  1  0.81981000  0.86664000  0.92691000  1.0
  H  H579  1  0.83056000  0.91124000  0.71470500  1.0
  H  H580  1  0.86313000  0.97666000  0.72519000  1.0
  H  H581  1  0.78838000  0.96832000  0.69837500  1.0
  H  H582  1  0.72374000  0.92280000  0.94383000  1.0
  H  H583  1  0.67321000  0.89128000  0.89601500  1.0
  H  H584  1  0.66544000  0.95950000  0.91034500  1.0
  H  H585  1  0.72231000  0.04907000  0.73917000  1.0
  H  H586  1  0.80045000  0.05210000  0.74147000  1.0
  H  H587  1  0.76655000  0.08075000  0.79184000  1.0
  H  H588  1  0.33663000  0.47944000  0.61926500  1.0
  H  H589  1  0.25989000  0.46500000  0.62165000  1.0
  H  H590  1  0.28456000  0.52343000  0.58972500  1.0
  H  H591  1  0.36393000  0.30427000  0.52536500  1.0
  H  H592  1  0.41525000  0.34376000  0.49249500  1.0
  H  H593  1  0.35718000  0.30623000  0.45855500  1.0
  H  H594  1  0.22244000  0.54416000  0.50630500  1.0
  H  H595  1  0.18744000  0.50305000  0.55104500  1.0
  H  H596  1  0.16390000  0.49935000  0.48518500  1.0
  H  H597  1  0.35441000  0.37295000  0.39665500  1.0
  H  H598  1  0.29105000  0.40364000  0.36834000  1.0
  H  H599  1  0.28556000  0.33793000  0.39457500  1.0
  H  H600  1  0.00993000  0.97685000  0.21827500  1.0
  H  H601  1  0.02570000  0.01000000  0.15988000  1.0
  H  H602  1  0.03464000  0.94104000  0.16476500  1.0
  H  H603  1  0.82041000  0.08190000  0.12186500  1.0
  H  H604  1  0.76409000  0.03699000  0.10261500  1.0
  H  H605  1  0.81519000  0.05613000  0.05748000  1.0
  H  H606  1  0.98127000  0.87956000  0.21274500  1.0
  H  H607  1  0.98443000  0.85195000  0.14941500  1.0
  H  H608  1  0.92684000  0.83462000  0.18859000  1.0
  H  H609  1  0.76520000  0.96618000  0.04138000  1.0
  H  H610  1  0.73672000  0.93901000  0.09786000  1.0
  H  H611  1  0.77147000  0.89770000  0.05362500  1.0
  H  H612  1  0.02542000  0.64676000  0.71131500  1.0
  H  H613  1  0.02326000  0.71315000  0.68662500  1.0
  H  H614  1  0.00441000  0.66081000  0.64443000  1.0
  H  H615  1  0.82481000  0.80139000  0.74462000  1.0
  H  H616  1  0.87087000  0.77838000  0.79997500  1.0
  H  H617  1  0.79918000  0.75505000  0.78959500  1.0
  H  H618  1  0.96261000  0.57545000  0.66575000  1.0
  H  H619  1  0.92454000  0.60332000  0.60834500  1.0
  H  H620  1  0.89053000  0.55529000  0.64625500  1.0
  H  H621  1  0.74903000  0.67396000  0.76527000  1.0
  H  H622  1  0.72459000  0.66184000  0.69951500  1.0
  H  H623  1  0.73796000  0.72761000  0.71930000  1.0
  H  H624  1  0.21032000  0.33446000  0.66243500  1.0
  H  H625  1  0.26908000  0.37947000  0.68069000  1.0
  H  H626  1  0.19743000  0.39765000  0.69208000  1.0
  H  H627  1  0.37573000  0.34143000  0.84999500  1.0
  H  H628  1  0.38324000  0.27278000  0.83211500  1.0
  H  H629  1  0.35375000  0.29160000  0.89034500  1.0
  H  H630  1  0.11608000  0.32335000  0.70372000  1.0
  H  H631  1  0.12006000  0.38247000  0.74300500  1.0
  H  H632  1  0.08643000  0.32399000  0.76412000  1.0
  H  H633  1  0.26100000  0.27657000  0.92173500  1.0
  H  H634  1  0.28963000  0.22168000  0.88706500  1.0
  H  H635  1  0.21472000  0.22471000  0.89429000  1.0
  H  H636  1  0.78141000  0.11088000  0.19787500  1.0
  H  H637  1  0.70552000  0.12732000  0.18619500  1.0
  H  H638  1  0.73033000  0.08070000  0.23567000  1.0
  H  H639  1  0.88964000  0.26227000  0.32643000  1.0
  H  H640  1  0.90071000  0.19181000  0.33424000  1.0
  H  H641  1  0.87115000  0.22833000  0.38330000  1.0
  H  H642  1  0.63838000  0.11580000  0.25579000  1.0
  H  H643  1  0.61987000  0.17907000  0.22611500  1.0
  H  H644  1  0.60668000  0.16553000  0.29156500  1.0
  H  H645  1  0.80977000  0.30616000  0.37114500  1.0
  H  H646  1  0.77270000  0.26399000  0.41343500  1.0
  H  H647  1  0.73396000  0.31167000  0.37185500  1.0
  H  H648  1  0.54098000  0.79477000  0.19329000  1.0
  H  H649  1  0.55885000  0.85518000  0.22841500  1.0
  H  H650  1  0.53688000  0.85579000  0.16054500  1.0
  H  H651  1  0.40411000  0.78523000  0.33555500  1.0
  H  H652  1  0.35642000  0.74430000  0.29391000  1.0
  H  H653  1  0.33055000  0.80459000  0.32148000  1.0
  H  H654  1  0.42881000  0.96583000  0.15640000  1.0
  H  H655  1  0.46862000  0.91757000  0.12311000  1.0
  H  H656  1  0.49874000  0.94480000  0.18349500  1.0
  H  H657  1  0.25503000  0.85824000  0.20116500  1.0
  H  H658  1  0.27297000  0.87468000  0.26785000  1.0
  H  H659  1  0.26865000  0.80675000  0.24559500  1.0
  H  H660  1  0.57391000  0.26235000  0.69128500  1.0
  H  H661  1  0.54294000  0.20796000  0.65312000  1.0
  H  H662  1  0.61797000  0.20798000  0.67352500  1.0
  H  H663  1  0.39249000  0.19695000  0.77646000  1.0
  H  H664  1  0.41831000  0.18162000  0.84162500  1.0
  H  H665  1  0.39769000  0.12987000  0.79567000  1.0
  H  H666  1  0.67829000  0.19903000  0.74668000  1.0
  H  H667  1  0.66728000  0.13460000  0.71630500  1.0
  H  H668  1  0.69290000  0.14135000  0.78259000  1.0
  H  H669  1  0.45905000  0.07216000  0.84138500  1.0
  H  H670  1  0.49083000  0.11808000  0.88923500  1.0
  H  H671  1  0.53114000  0.06211000  0.86920500  1.0
  H  H672  1  0.14777000  0.22574000  0.30899500  1.0
  H  H673  1  0.10940000  0.23055000  0.24616500  1.0
  H  H674  1  0.07667000  0.20174000  0.30040000  1.0
  H  H675  1  0.90598000  0.32881000  0.26536000  1.0
  H  H676  1  0.92384000  0.39719000  0.27082000  1.0
  H  H677  1  0.90911000  0.35931000  0.32666000  1.0
  H  H678  1  0.19632000  0.30331000  0.28710500  1.0
  H  H679  1  0.19533000  0.29427000  0.35566000  1.0
  H  H680  1  0.20811000  0.35759000  0.32870500  1.0
  H  H681  1  0.96623000  0.42490000  0.36939000  1.0
  H  H682  1  0.99092000  0.46267000  0.31706000  1.0
  H  H683  1  0.03503000  0.45639000  0.37719000  1.0
  H  H684  1  0.70702000  0.63326000  0.29876500  1.0
  H  H685  1  0.72528000  0.69739000  0.32811500  1.0
  H  H686  1  0.77927000  0.65571000  0.30252000  1.0
  H  H687  1  0.56499000  0.71096000  0.13082500  1.0
  H  H688  1  0.58829000  0.64337000  0.14701500  1.0
  H  H689  1  0.61341000  0.67442000  0.09355500  1.0
  H  H690  1  0.84797000  0.68881000  0.24708000  1.0
  H  H691  1  0.82315000  0.73982000  0.28858500  1.0
  H  H692  1  0.85263000  0.75762000  0.23118500  1.0
  H  H693  1  0.69182000  0.72842000  0.06172000  1.0
  H  H694  1  0.70585000  0.79512000  0.08479500  1.0
  H  H695  1  0.63475000  0.76900000  0.08414500  1.0
  H  H696  1  0.17822000  0.88914000  0.80254000  1.0
  H  H697  1  0.24569000  0.91177000  0.78349500  1.0
  H  H698  1  0.24239000  0.85082000  0.81964500  1.0
  H  H699  1  0.07072000  0.85113000  0.63718000  1.0
  H  H700  1  0.05891000  0.78102000  0.64658500  1.0
  H  H701  1  0.09580000  0.80527000  0.59368000  1.0
  H  H702  1  0.33216000  0.83234000  0.77557500  1.0
  H  H703  1  0.32237000  0.88936000  0.73413500  1.0
  H  H704  1  0.35530000  0.83119000  0.71211500  1.0
  H  H705  1  0.18995000  0.75793000  0.57131500  1.0
  H  H706  1  0.14062000  0.72118000  0.60771000  1.0
  H  H707  1  0.21524000  0.70488000  0.61431500  1.0
  O  O708  1  0.91385000  0.90437000  0.78105500  1.0
  O  O709  1  0.02584000  0.93961000  0.77502000  1.0
  O  O710  1  0.94149000  0.81199000  0.74103500  1.0
  O  O711  1  0.00894000  0.74950000  0.77105500  1.0
  O  O712  1  0.05219000  0.84913000  0.72818000  1.0
  O  O713  1  0.99409000  0.74847000  0.86966000  1.0
  O  O714  1  0.99438000  0.95207000  0.85462000  1.0
  O  O715  1  0.90833000  0.87712000  0.86329000  1.0
  O  O716  1  0.07112000  0.88852000  0.90707500  1.0
  O  O717  1  0.09874000  0.80290000  0.89274500  1.0
  O  O718  1  0.98350000  0.81817000  0.92405500  1.0
  O  O719  1  0.11019000  0.80935000  0.79306500  1.0
  O  O720  1  0.00874000  0.84577000  0.82486500  1.0
  O  O721  1  0.35219000  0.35414000  0.61882500  1.0
  O  O722  1  0.44756000  0.29819000  0.59176500  1.0
  O  O723  1  0.35214000  0.29828000  0.70592500  1.0
  O  O724  1  0.38150000  0.36636000  0.76039000  1.0
  O  O725  1  0.45298000  0.24990000  0.68343500  1.0
  O  O726  1  0.46270000  0.44011000  0.75477500  1.0
  O  O727  1  0.52843000  0.34638000  0.61650500  1.0
  O  O728  1  0.42558000  0.40108000  0.58660500  1.0
  O  O729  1  0.55450000  0.41702000  0.69024000  1.0
  O  O730  1  0.54699000  0.35960000  0.75656500  1.0
  O  O731  1  0.44770000  0.46202000  0.66889500  1.0
  O  O732  1  0.46479000  0.28570000  0.76502500  1.0
  O  O733  1  0.45112000  0.35671000  0.68388000  1.0
  O  O734  1  0.95367000  0.07830000  0.19194500  1.0
  O  O735  1  0.04619000  0.14743000  0.21690000  1.0
  O  O736  1  0.88391000  0.14460000  0.23575000  1.0
  O  O737  1  0.86142000  0.23122000  0.21558500  1.0
  O  O738  1  0.97671000  0.21223000  0.26459000  1.0
  O  O739  1  0.84694000  0.22199000  0.11281500  1.0
  O  O740  1  0.04088000  0.12171000  0.13331500  1.0
  O  O741  1  0.92739000  0.09509000  0.10642000  1.0
  O  O742  1  0.01946000  0.21936000  0.09444000  1.0
  O  O743  1  0.94718000  0.27948000  0.10445000  1.0
  O  O744  1  0.90829000  0.18683000  0.05801500  1.0
  O  O745  1  0.96643000  0.28058000  0.20614000  1.0
  O  O746  1  0.94767000  0.18464000  0.16193500  1.0
  O  O747  1  0.52840000  0.58114000  0.23211000  1.0
  O  O748  1  0.41369000  0.60971000  0.23386000  1.0
  O  O749  1  0.55801000  0.68376000  0.22370000  1.0
  O  O750  1  0.61393000  0.68474000  0.29923500  1.0
  O  O751  1  0.44713000  0.71238000  0.23857500  1.0
  O  O752  1  0.58501000  0.66287000  0.39504000  1.0
  O  O753  1  0.39483000  0.60866000  0.31718500  1.0
  O  O754  1  0.48669000  0.53982000  0.29848500  1.0
  O  O755  1  0.45572000  0.64426000  0.40067500  1.0
  O  O756  1  0.48966000  0.72664000  0.37826000  1.0
  O  O757  1  0.54703000  0.57883000  0.38339500  1.0
  O  O758  1  0.52117000  0.75630000  0.28681000  1.0
  O  O759  1  0.50377000  0.64857000  0.30766500  1.0
