# generated using pymatgen
data_Zn4H188C131N43O12
_symmetry_space_group_name_H-M   'P 1'
_cell_length_a   18.05520000
_cell_length_b   38.82570000
_cell_length_c   38.84200000
_cell_angle_alpha   90.00500000
_cell_angle_beta   89.05400000
_cell_angle_gamma   90.38200000
_symmetry_Int_Tables_number   1
_chemical_formula_structural   Zn4H188C131N43O12
_chemical_formula_sum   'Zn8 H376 C262 N86 O24'
_cell_volume   27224.15011439
_cell_formula_units_Z   2
loop_
 _symmetry_equiv_pos_site_id
 _symmetry_equiv_pos_as_xyz
  1  'x, y, z'
loop_
 _atom_site_type_symbol
 _atom_site_label
 _atom_site_symmetry_multiplicity
 _atom_site_fract_x
 _atom_site_fract_y
 _atom_site_fract_z
 _atom_site_occupancy
  C  C0  1  0.16222000  0.78231000  0.14740000  1.0
  C  C1  1  0.08658000  0.78324000  0.15493000  1.0
  C  C2  1  0.06126000  0.78844000  0.09558000  1.0
  C  C3  1  0.13734000  0.78747000  0.08795000  1.0
  C  C4  1  0.85062000  0.75810000  0.11199000  1.0
  C  C5  1  0.92458000  0.78718000  0.24161000  1.0
  C  C6  1  0.92916000  0.75048000  0.20203000  1.0
  C  C7  1  0.69428000  0.84479000  0.22013000  1.0
  C  C8  1  0.76942000  0.83723000  0.21706000  1.0
  C  C9  1  0.79764000  0.89670000  0.21280000  1.0
  C  C10  1  0.72200000  0.90437000  0.21582000  1.0
  C  C11  1  0.00744000  0.87689000  0.24104000  1.0
  C  C12  1  0.92962000  0.86588000  0.13236000  1.0
  C  C13  1  0.19494000  0.67318000  0.64014000  1.0
  C  C14  1  0.26882000  0.66754000  0.64802000  1.0
  C  C15  1  0.30618000  0.69085000  0.59413000  1.0
  C  C16  1  0.23172000  0.69655000  0.58610000  1.0
  C  C17  1  0.52006000  0.70044000  0.62202000  1.0
  C  C18  1  0.41668000  0.66437000  0.74157000  1.0
  C  C19  1  0.40454000  0.70321000  0.70462000  1.0
  C  C20  1  0.66062000  0.61631000  0.71265000  1.0
  C  C21  1  0.58446000  0.62175000  0.71150000  1.0
  C  C22  1  0.56474000  0.56215000  0.70234000  1.0
  C  C23  1  0.64132000  0.55661000  0.70349000  1.0
  C  C24  1  0.35398000  0.57210000  0.73617000  1.0
  C  C25  1  0.42876000  0.59411000  0.62707000  1.0
  C  C26  1  0.68084000  0.11421000  0.82511000  1.0
  C  C27  1  0.75648000  0.12077000  0.82797000  1.0
  C  C28  1  0.77812000  0.06126000  0.83577000  1.0
  C  C29  1  0.70200000  0.05458000  0.83301000  1.0
  C  C30  1  0.99094000  0.07569000  0.80622000  1.0
  C  C31  1  0.93644000  0.20493000  0.83945000  1.0
  C  C32  1  0.92272000  0.16704000  0.80153000  1.0
  C  C33  1  0.14426000  0.17172000  0.90391000  1.0
  C  C34  1  0.07010000  0.16657000  0.89593000  1.0
  C  C35  1  0.03382000  0.19045000  0.94962000  1.0
  C  C36  1  0.10856000  0.19571000  0.95773000  1.0
  C  C37  1  0.81960000  0.20014000  0.92222000  1.0
  C  C38  1  0.90706000  0.09386000  0.91477000  1.0
  C  C39  1  0.63738000  0.34135000  0.32758000  1.0
  C  C40  1  0.56130000  0.33514000  0.32913000  1.0
  C  C41  1  0.53978000  0.39471000  0.33688000  1.0
  C  C42  1  0.61632000  0.40105000  0.33521000  1.0
  C  C43  1  0.33050000  0.38022000  0.30296000  1.0
  C  C44  1  0.39114000  0.25154000  0.34138000  1.0
  C  C45  1  0.39722000  0.28868000  0.30221000  1.0
  C  C46  1  0.17838000  0.27925000  0.40655000  1.0
  C  C47  1  0.25196000  0.28632000  0.39779000  1.0
  C  C48  1  0.28958000  0.26575000  0.45209000  1.0
  C  C49  1  0.21526000  0.25878000  0.46108000  1.0
  C  C50  1  0.50684000  0.26321000  0.42304000  1.0
  C  C51  1  0.39844000  0.36503000  0.41298000  1.0
  C  C52  1  0.88288000  0.69434000  0.47829000  1.0
  C  C53  1  0.89386000  0.69214000  0.44257000  1.0
  C  C54  1  0.84500000  0.70890000  0.42048000  1.0
  C  C55  1  0.78562000  0.72744000  0.43476000  1.0
  C  C56  1  0.77756000  0.73011000  0.47057000  1.0
  C  C57  1  0.27028000  0.92485000  0.79034000  1.0
  C  C58  1  0.29594000  0.89092000  0.79266000  1.0
  C  C59  1  0.36744000  0.88287000  0.78067000  1.0
  C  C60  1  0.41206000  0.90894000  0.76628000  1.0
  C  C61  1  0.38574000  0.94277000  0.76515000  1.0
  C  C62  1  0.75516000  0.22478000  0.57408000  1.0
  C  C63  1  0.76054000  0.22482000  0.61006000  1.0
  C  C64  1  0.81702000  0.24383000  0.62577000  1.0
  C  C65  1  0.86778000  0.26232000  0.60506000  1.0
  C  C66  1  0.86094000  0.26175000  0.56919000  1.0
  C  C67  1  0.28690000  0.02809000  0.25935000  1.0
  C  C68  1  0.31250000  0.06222000  0.25723000  1.0
  C  C69  1  0.38248000  0.07083000  0.26991000  1.0
  C  C70  1  0.42558000  0.04518000  0.28483000  1.0
  C  C71  1  0.39962000  0.01111000  0.28555000  1.0
  C  C72  1  0.45672000  0.19521000  0.06645000  1.0
  C  C73  1  0.44418000  0.19368000  0.10212000  1.0
  C  C74  1  0.49238000  0.21100000  0.12434000  1.0
  C  C75  1  0.55250000  0.22956000  0.11023000  1.0
  C  C76  1  0.56274000  0.23114000  0.07442000  1.0
  C  C77  1  0.04740000  0.52735000  0.28955000  1.0
  C  C78  1  0.02478000  0.56183000  0.28878000  1.0
  C  C79  1  0.95612000  0.57028000  0.27471000  1.0
  C  C80  1  0.91218000  0.54409000  0.26072000  1.0
  C  C81  1  0.93574000  0.50985000  0.26233000  1.0
  C  C82  1  0.57420000  0.74924000  0.96312000  1.0
  C  C83  1  0.55058000  0.75035000  0.92891000  1.0
  C  C84  1  0.48114000  0.73659000  0.92047000  1.0
  C  C85  1  0.43740000  0.72106000  0.94630000  1.0
  C  C86  1  0.46186000  0.72089000  0.98029000  1.0
  C  C87  1  0.94934000  0.44480000  0.77519000  1.0
  C  C88  1  0.92438000  0.41063000  0.77714000  1.0
  C  C89  1  0.96792000  0.38429000  0.76298000  1.0
  C  C90  1  0.03730000  0.39252000  0.74825000  1.0
  C  C91  1  0.06118000  0.42695000  0.74708000  1.0
  C  C92  1  0.91898000  0.80309000  0.27680000  1.0
  C  C93  1  0.85570000  0.79012000  0.33195000  1.0
  C  C94  1  0.82586000  0.75989000  0.35368000  1.0
  C  C95  1  0.96264000  0.75722000  0.31512000  1.0
  C  C96  1  0.93392000  0.72604000  0.33551000  1.0
  C  C97  1  0.85358000  0.70489000  0.38185000  1.0
  C  C98  1  0.39460000  0.73809000  0.68869000  1.0
  C  C99  1  0.34562000  0.79445000  0.70714000  1.0
  C  C100  1  0.33630000  0.81757000  0.73906000  1.0
  C  C101  1  0.46478000  0.77567000  0.72712000  1.0
  C  C102  1  0.45644000  0.79784000  0.75943000  1.0
  C  C103  1  0.39888000  0.84732000  0.78602000  1.0
  C  C104  1  0.90860000  0.15050000  0.76726000  1.0
  C  C105  1  0.82556000  0.16431000  0.71932000  1.0
  C  C106  1  0.79366000  0.19504000  0.69971000  1.0
  C  C107  1  0.94388000  0.19324000  0.72289000  1.0
  C  C108  1  0.91354000  0.22446000  0.70368000  1.0
  C  C109  1  0.82004000  0.24637000  0.66461000  1.0
  C  C110  1  0.38554000  0.21733000  0.35924000  1.0
  C  C111  1  0.34550000  0.15880000  0.34228000  1.0
  C  C112  1  0.34272000  0.13499000  0.31071000  1.0
  C  C113  1  0.46558000  0.18035000  0.32383000  1.0
  C  C114  1  0.46428000  0.15737000  0.29195000  1.0
  C  C115  1  0.41414000  0.10661000  0.26494000  1.0
  C  C116  1  0.40636000  0.30478000  0.26720000  1.0
  C  C117  1  0.47884000  0.29157000  0.21450000  1.0
  C  C118  1  0.50996000  0.26112000  0.19372000  1.0
  C  C119  1  0.36632000  0.25988000  0.22656000  1.0
  C  C120  1  0.39594000  0.22868000  0.20667000  1.0
  C  C121  1  0.48262000  0.20732000  0.16298000  1.0
  C  C122  1  0.93592000  0.71652000  0.18377000  1.0
  C  C123  1  0.98360000  0.65921000  0.20045000  1.0
  C  C124  1  0.99046000  0.63581000  0.23219000  1.0
  C  C125  1  0.86146000  0.67670000  0.21941000  1.0
  C  C126  1  0.86670000  0.65425000  0.25153000  1.0
  C  C127  1  0.92474000  0.60603000  0.27911000  1.0
  C  C128  1  0.42844000  0.64687000  0.77547000  1.0
  C  C129  1  0.48864000  0.66353000  0.82980000  1.0
  C  C130  1  0.50348000  0.69518000  0.85254000  1.0
  C  C131  1  0.36626000  0.68463000  0.81740000  1.0
  C  C132  1  0.38002000  0.71681000  0.83902000  1.0
  C  C133  1  0.44888000  0.74260000  0.88534000  1.0
  C  C134  1  0.94782000  0.23942000  0.85618000  1.0
  C  C135  1  0.99562000  0.29642000  0.83751000  1.0
  C  C136  1  0.00212000  0.31960000  0.80545000  1.0
  C  C137  1  0.87368000  0.27778000  0.82066000  1.0
  C  C138  1  0.87874000  0.29990000  0.78822000  1.0
  C  C139  1  0.93576000  0.34846000  0.75938000  1.0
  C  C140  1  0.79194000  0.73488000  0.09783000  1.0
  C  C141  1  0.74512000  0.77814000  0.05785000  1.0
  C  C142  1  0.72358000  0.78520000  0.02043000  1.0
  C  C143  1  0.72222000  0.71686000  0.04849000  1.0
  C  C144  1  0.70046000  0.72466000  0.01132000  1.0
  C  C145  1  0.64572000  0.76705000  0.97299000  1.0
  C  C146  1  0.29720000  0.55733000  0.76069000  1.0
  C  C147  1  0.24130000  0.51984000  0.71723000  1.0
  C  C148  1  0.21416000  0.48315000  0.70943000  1.0
  C  C149  1  0.22294000  0.50850000  0.77859000  1.0
  C  C150  1  0.19530000  0.47210000  0.77004000  1.0
  C  C151  1  0.13196000  0.43644000  0.72773000  1.0
  C  C152  1  0.75564000  0.22390000  0.92752000  1.0
  C  C153  1  0.69680000  0.20295000  0.98049000  1.0
  C  C154  1  0.68018000  0.21075000  0.01863000  1.0
  C  C155  1  0.70622000  0.26459000  0.96916000  1.0
  C  C156  1  0.69030000  0.27179000  0.00735000  1.0
  C  C157  1  0.62604000  0.25228000  0.05921000  1.0
  C  C158  1  0.27518000  0.39418000  0.27830000  1.0
  C  C159  1  0.21962000  0.43349000  0.32078000  1.0
  C  C160  1  0.19496000  0.47069000  0.32754000  1.0
  C  C161  1  0.20414000  0.44284000  0.25925000  1.0
  C  C162  1  0.17882000  0.47979000  0.26669000  1.0
  C  C163  1  0.11730000  0.51770000  0.30827000  1.0
  C  C164  1  0.57500000  0.24211000  0.42752000  1.0
  C  C165  1  0.62622000  0.25907000  0.48274000  1.0
  C  C166  1  0.64028000  0.24808000  0.52010000  1.0
  C  C167  1  0.62254000  0.19853000  0.46595000  1.0
  C  C168  1  0.63564000  0.18825000  0.50345000  1.0
  C  C169  1  0.69478000  0.20396000  0.55696000  1.0
  C  C170  1  0.06614000  0.88894000  0.26486000  1.0
  C  C171  1  0.18034000  0.92196000  0.25505000  1.0
  C  C172  1  0.21270000  0.95550000  0.24020000  1.0
  C  C173  1  0.06524000  0.95174000  0.26872000  1.0
  C  C174  1  0.09922000  0.98528000  0.25446000  1.0
  C  C175  1  0.21222000  0.01861000  0.24460000  1.0
  C  C176  1  0.58462000  0.72428000  0.61724000  1.0
  C  C177  1  0.64294000  0.70305000  0.56446000  1.0
  C  C178  1  0.66000000  0.71079000  0.52637000  1.0
  C  C179  1  0.63714000  0.76472000  0.57590000  1.0
  C  C180  1  0.65352000  0.77191000  0.53776000  1.0
  C  C181  1  0.71630000  0.75199000  0.48588000  1.0
  C  C182  1  0.04990000  0.06245000  0.78243000  1.0
  C  C183  1  0.16258000  0.03020000  0.79423000  1.0
  C  C184  1  0.19316000  0.99679000  0.80929000  1.0
  C  C185  1  0.04950000  0.99962000  0.77891000  1.0
  C  C186  1  0.08184000  0.96629000  0.79350000  1.0
  C  C187  1  0.19382000  0.93370000  0.80437500  1.0
  C  C188  1  0.13050000  0.21221000  0.99117000  1.0
  C  C189  1  0.21030000  0.16865000  0.01636000  1.0
  C  C190  1  0.29130000  0.15824000  0.02048000  1.0
  C  C191  1  0.24448000  0.22881000  0.02093000  1.0
  C  C192  1  0.32606000  0.21891000  0.02533000  1.0
  C  C193  1  0.41168000  0.17351000  0.04217000  1.0
  C  C194  1  0.64732000  0.43678000  0.33938000  1.0
  C  C195  1  0.76316000  0.46867000  0.33143000  1.0
  C  C196  1  0.83440000  0.47151000  0.30952000  1.0
  C  C197  1  0.69668000  0.44814000  0.28151000  1.0
  C  C198  1  0.76792000  0.45111000  0.25958000  1.0
  C  C199  1  0.88570000  0.48074000  0.25127000  1.0
  C  C200  1  0.16602000  0.79070000  0.05161000  1.0
  C  C201  1  0.28214000  0.78517000  0.01916000  1.0
  C  C202  1  0.35530000  0.76546000  0.01688000  1.0
  C  C203  1  0.22058000  0.73401000  0.04208000  1.0
  C  C204  1  0.29380000  0.71426000  0.03954000  1.0
  C  C205  1  0.41186000  0.70850000  0.00931000  1.0
  C  C206  1  0.67322000  0.52135000  0.69799000  1.0
  C  C207  1  0.78708000  0.48923000  0.70588000  1.0
  C  C208  1  0.85570000  0.48544000  0.72828000  1.0
  C  C209  1  0.71586000  0.50827000  0.75586000  1.0
  C  C210  1  0.78452000  0.50435000  0.77828000  1.0
  C  C211  1  0.90008000  0.47406000  0.78656000  1.0
  C  C212  1  0.21040000  0.71281000  0.55252000  1.0
  C  C213  1  0.12996000  0.66892000  0.52746000  1.0
  C  C214  1  0.04878000  0.65821000  0.52365000  1.0
  C  C215  1  0.09654000  0.72894000  0.52272000  1.0
  C  C216  1  0.01474000  0.71878000  0.51864000  1.0
  C  C217  1  0.92812000  0.67300000  0.50253000  1.0
  C  C218  1  0.67130000  0.01875000  0.83739000  1.0
  C  C219  1  0.55580000  0.98663000  0.83142000  1.0
  C  C220  1  0.48494000  0.98303000  0.81043000  1.0
  C  C221  1  0.62228000  0.00696000  0.78032000  1.0
  C  C222  1  0.55128000  0.00312000  0.75940000  1.0
  C  C223  1  0.43506000  0.97206000  0.75297000  1.0
  C  C224  1  0.19366000  0.24360000  0.49550000  1.0
  C  C225  1  0.11402000  0.28736000  0.52190000  1.0
  C  C226  1  0.03314000  0.29851000  0.52592000  1.0
  C  C227  1  0.07682000  0.22747000  0.52527000  1.0
  C  C228  1  0.99528000  0.23804000  0.52939000  1.0
  C  C229  1  0.90986000  0.28401000  0.54638000  1.0
  C  C230  1  0.69504000  0.94080000  0.21375000  1.0
  C  C231  1  0.57924000  0.97249000  0.21992000  1.0
  C  C232  1  0.50574000  0.97450000  0.24014000  1.0
  C  C233  1  0.63922000  0.94999000  0.27072000  1.0
  C  C234  1  0.56562000  0.95230000  0.29094000  1.0
  C  C235  1  0.44844000  0.98216000  0.29746000  1.0
  C  C236  1  0.93266000  0.89395000  0.10638000  1.0
  C  C237  1  0.93842000  0.88641000  0.07108000  1.0
  C  C238  1  0.94436000  0.91316000  0.04708000  1.0
  C  C239  1  0.93782000  0.95469000  0.09175000  1.0
  C  C240  1  0.93162000  0.92866000  0.11653000  1.0
  C  C241  1  0.95468000  0.97455000  0.03197000  1.0
  C  C242  1  0.87918000  0.98756000  0.02016000  1.0
  C  C243  1  0.88858000  0.01506000  0.99284000  1.0
  C  C244  1  0.89718000  0.04978000  0.00215000  1.0
  C  C245  1  0.90396000  0.07535000  0.97686000  1.0
  C  C246  1  0.90228000  0.06669000  0.94168000  1.0
  C  C247  1  0.89464000  0.03178000  0.93248000  1.0
  C  C248  1  0.88794000  0.00627000  0.95780000  1.0
  C  C249  1  0.39164000  0.39296000  0.43884000  1.0
  C  C250  1  0.39118000  0.38557000  0.47421000  1.0
  C  C251  1  0.38408000  0.41227000  0.49812000  1.0
  C  C252  1  0.37774000  0.45338000  0.45312000  1.0
  C  C253  1  0.38502000  0.42742000  0.42844000  1.0
  C  C254  1  0.36950000  0.47342000  0.51301000  1.0
  C  C255  1  0.44558000  0.48932000  0.52033000  1.0
  C  C256  1  0.43938000  0.51651000  0.54795000  1.0
  C  C257  1  0.42964000  0.55124000  0.53919000  1.0
  C  C258  1  0.42550000  0.57647000  0.56485000  1.0
  C  C259  1  0.43086000  0.56740000  0.59979000  1.0
  C  C260  1  0.43954000  0.53246000  0.60844000  1.0
  C  C261  1  0.44376000  0.50731000  0.58278000  1.0
  H  H262  1  0.20188000  0.78011000  0.16784000  1.0
  H  H263  1  0.06806000  0.78209000  0.18145000  1.0
  H  H264  1  0.02138000  0.79140000  0.07529000  1.0
  H  H265  1  0.65368000  0.82432000  0.22285000  1.0
  H  H266  1  0.78652000  0.81068000  0.21716000  1.0
  H  H267  1  0.83842000  0.91705000  0.20946000  1.0
  H  H268  1  0.15124000  0.66603000  0.65819000  1.0
  H  H269  1  0.28222000  0.65555000  0.67220000  1.0
  H  H270  1  0.34966000  0.69742000  0.57575000  1.0
  H  H271  1  0.69828000  0.63768000  0.71657000  1.0
  H  H272  1  0.56332000  0.64754000  0.71435000  1.0
  H  H273  1  0.52680000  0.54097000  0.69789000  1.0
  H  H274  1  0.64262000  0.13510000  0.82104000  1.0
  H  H275  1  0.77664000  0.14696000  0.82632000  1.0
  H  H276  1  0.81654000  0.04055000  0.84041000  1.0
  H  H277  1  0.18764000  0.16415000  0.88597000  1.0
  H  H278  1  0.05610000  0.15456000  0.87180000  1.0
  H  H279  1  0.99068000  0.19743000  0.96792000  1.0
  H  H280  1  0.67570000  0.32030000  0.32406000  1.0
  H  H281  1  0.54106000  0.30904000  0.32691000  1.0
  H  H282  1  0.50118000  0.41561000  0.34089000  1.0
  H  H283  1  0.13468000  0.28478000  0.38868000  1.0
  H  H284  1  0.26502000  0.29790000  0.37314000  1.0
  H  H285  1  0.33300000  0.26087000  0.47029000  1.0
  H  H286  1  0.93852000  0.67660000  0.43210000  1.0
  H  H287  1  0.74534000  0.73938000  0.41836000  1.0
  H  H288  1  0.26098000  0.87110000  0.80419000  1.0
  H  H289  1  0.46762000  0.90310000  0.75719000  1.0
  H  H290  1  0.72054000  0.21061000  0.62566000  1.0
  H  H291  1  0.91084000  0.27777000  0.61673000  1.0
  H  H292  1  0.27874000  0.08175000  0.24536000  1.0
  H  H293  1  0.47992000  0.05153000  0.29449000  1.0
  H  H294  1  0.39886000  0.17823000  0.11248000  1.0
  H  H295  1  0.59176000  0.24224000  0.12682000  1.0
  H  H296  1  0.05876000  0.58163000  0.30043000  1.0
  H  H297  1  0.85844000  0.55011000  0.25035000  1.0
  H  H298  1  0.58458000  0.76307000  0.90942000  1.0
  H  H299  1  0.38312000  0.71090000  0.94029000  1.0
  H  H300  1  0.87006000  0.40478000  0.78799000  1.0
  H  H301  1  0.07098000  0.37259000  0.73649000  1.0
  H  H302  1  0.91892000  0.74966000  0.38249000  1.0
  H  H303  1  0.97234000  0.81590000  0.28314000  1.0
  H  H304  1  0.87630000  0.82352000  0.27577000  1.0
  H  H305  1  0.80740000  0.80500000  0.32275000  1.0
  H  H306  1  0.89030000  0.80754000  0.34795000  1.0
  H  H307  1  0.78436000  0.74572000  0.33805000  1.0
  H  H308  1  0.79676000  0.77109000  0.37637000  1.0
  H  H309  1  0.99818000  0.77370000  0.33164000  1.0
  H  H310  1  0.99766000  0.74776000  0.29336000  1.0
  H  H311  1  0.90298000  0.70892000  0.31776000  1.0
  H  H312  1  0.98260000  0.71156000  0.34497000  1.0
  H  H313  1  0.88898000  0.68195000  0.37673000  1.0
  H  H314  1  0.79866000  0.69815000  0.37096000  1.0
  H  H315  1  0.43642000  0.84403000  0.73519000  1.0
  H  H316  1  0.44062000  0.74377000  0.67026000  1.0
  H  H317  1  0.34286000  0.73716000  0.67356000  1.0
  H  H318  1  0.28960000  0.78590000  0.69907000  1.0
  H  H319  1  0.37178000  0.80928000  0.68555000  1.0
  H  H320  1  0.30284000  0.80324000  0.75880000  1.0
  H  H321  1  0.30432000  0.84068000  0.73147000  1.0
  H  H322  1  0.49394000  0.79054000  0.70638000  1.0
  H  H323  1  0.49956000  0.75309000  0.73351000  1.0
  H  H324  1  0.43262000  0.78162000  0.78056000  1.0
  H  H325  1  0.51274000  0.80638000  0.76721000  1.0
  H  H326  1  0.45362000  0.85095000  0.79843000  1.0
  H  H327  1  0.36358000  0.83220000  0.80446000  1.0
  H  H328  1  0.87420000  0.19861000  0.66149000  1.0
  H  H329  1  0.95994000  0.13765000  0.75778000  1.0
  H  H330  1  0.86618000  0.12999000  0.77119000  1.0
  H  H331  1  0.77946000  0.15199000  0.73428000  1.0
  H  H332  1  0.84854000  0.14496000  0.70093000  1.0
  H  H333  1  0.76466000  0.21193000  0.71876000  1.0
  H  H334  1  0.75172000  0.18514000  0.68147000  1.0
  H  H335  1  0.96922000  0.17475000  0.70427000  1.0
  H  H336  1  0.98806000  0.20236000  0.74036000  1.0
  H  H337  1  0.89424000  0.24363000  0.72306000  1.0
  H  H338  1  0.95966000  0.23639000  0.68838000  1.0
  H  H339  1  0.85194000  0.27004000  0.67143000  1.0
  H  H340  1  0.76278000  0.25140000  0.67443000  1.0
  H  H341  1  0.44420000  0.11090000  0.31623000  1.0
  H  H342  1  0.43040000  0.21461000  0.37817000  1.0
  H  H343  1  0.33226000  0.21679000  0.37401000  1.0
  H  H344  1  0.28772000  0.16602000  0.34939000  1.0
  H  H345  1  0.37008000  0.14511000  0.36450000  1.0
  H  H346  1  0.31070000  0.14812000  0.29028000  1.0
  H  H347  1  0.31184000  0.11121000  0.31831000  1.0
  H  H348  1  0.49284000  0.16673000  0.34542000  1.0
  H  H349  1  0.49894000  0.20378000  0.31752000  1.0
  H  H350  1  0.44276000  0.17267000  0.27011000  1.0
  H  H351  1  0.52234000  0.15000000  0.28543000  1.0
  H  H352  1  0.47100000  0.10354000  0.25377000  1.0
  H  H353  1  0.38164000  0.12120000  0.24567000  1.0
  H  H354  1  0.42192000  0.25315000  0.16104000  1.0
  H  H355  1  0.35378000  0.31736000  0.25980000  1.0
  H  H356  1  0.44898000  0.32542000  0.26916000  1.0
  H  H357  1  0.52640000  0.30566000  0.22588000  1.0
  H  H358  1  0.44914000  0.30960000  0.19729000  1.0
  H  H359  1  0.54612000  0.24601000  0.21103000  1.0
  H  H360  1  0.54516000  0.27183000  0.17257000  1.0
  H  H361  1  0.33508000  0.27701000  0.20905000  1.0
  H  H362  1  0.32710000  0.25048000  0.24687000  1.0
  H  H363  1  0.42176000  0.21078000  0.22526000  1.0
  H  H364  1  0.34808000  0.21508000  0.19494000  1.0
  H  H365  1  0.44714000  0.18420000  0.16814000  1.0
  H  H366  1  0.53728000  0.20087000  0.17412000  1.0
  H  H367  1  0.89222000  0.60815000  0.22791000  1.0
  H  H368  1  0.88966000  0.71317000  0.16556000  1.0
  H  H369  1  0.98802000  0.71718000  0.16810000  1.0
  H  H370  1  0.04008000  0.66837000  0.19290000  1.0
  H  H371  1  0.96024000  0.64450000  0.17849000  1.0
  H  H372  1  0.02158000  0.65024000  0.25218000  1.0
  H  H373  1  0.02392000  0.61297000  0.22467000  1.0
  H  H374  1  0.83570000  0.66189000  0.19810000  1.0
  H  H375  1  0.82516000  0.69897000  0.22564000  1.0
  H  H376  1  0.88664000  0.67059000  0.27304000  1.0
  H  H377  1  0.80990000  0.64495000  0.25845000  1.0
  H  H378  1  0.86920000  0.60268000  0.29171000  1.0
  H  H379  1  0.95862000  0.62152000  0.29729000  1.0
  H  H380  1  0.40918000  0.69202000  0.88353000  1.0
  H  H381  1  0.38100000  0.62934000  0.78145000  1.0
  H  H382  1  0.47852000  0.63052000  0.77281000  1.0
  H  H383  1  0.54242000  0.65510000  0.81836000  1.0
  H  H384  1  0.46534000  0.64200000  0.84563000  1.0
  H  H385  1  0.53440000  0.71465000  0.83674000  1.0
  H  H386  1  0.53984000  0.68721000  0.87395000  1.0
  H  H387  1  0.34038000  0.66399000  0.83360000  1.0
  H  H388  1  0.32670000  0.69130000  0.79683000  1.0
  H  H389  1  0.40074000  0.73779000  0.82177000  1.0
  H  H390  1  0.32598000  0.72506000  0.85040000  1.0
  H  H391  1  0.39610000  0.75677000  0.88991000  1.0
  H  H392  1  0.48510000  0.76001000  0.86952000  1.0
  H  H393  1  0.90352000  0.34645000  0.81109000  1.0
  H  H394  1  0.90376000  0.24428000  0.87575000  1.0
  H  H395  1  0.00114000  0.23848000  0.87006000  1.0
  H  H396  1  0.05222000  0.28784000  0.84424000  1.0
  H  H397  1  0.97220000  0.31117000  0.85970000  1.0
  H  H398  1  0.03332000  0.30528000  0.78507000  1.0
  H  H399  1  0.03536000  0.34278000  0.81226000  1.0
  H  H400  1  0.84780000  0.29268000  0.84218000  1.0
  H  H401  1  0.83736000  0.25523000  0.81525000  1.0
  H  H402  1  0.89924000  0.28352000  0.76664000  1.0
  H  H403  1  0.82184000  0.30855000  0.78196000  1.0
  H  H404  1  0.88000000  0.35157000  0.74790000  1.0
  H  H405  1  0.96908000  0.33296000  0.74065000  1.0
  H  H406  1  0.62232000  0.76144000  0.02534000  1.0
  H  H407  1  0.81268000  0.70801000  0.09955000  1.0
  H  H408  1  0.74106000  0.73712000  0.11428000  1.0
  H  H409  1  0.78786000  0.79756000  0.06475000  1.0
  H  H410  1  0.69588000  0.78191000  0.07509000  1.0
  H  H411  1  0.77422000  0.78477000  0.00362000  1.0
  H  H412  1  0.69996000  0.81159000  0.01928000  1.0
  H  H413  1  0.67106000  0.71584000  0.06495000  1.0
  H  H414  1  0.74814000  0.69095000  0.04889000  1.0
  H  H415  1  0.75032000  0.72216000  0.99421000  1.0
  H  H416  1  0.65950000  0.70484000  0.00326000  1.0
  H  H417  1  0.69044000  0.76046000  0.95405000  1.0
  H  H418  1  0.63610000  0.79516000  0.96974000  1.0
  H  H419  1  0.11584000  0.48888000  0.73583000  1.0
  H  H420  1  0.32150000  0.55755000  0.78684000  1.0
  H  H421  1  0.24794000  0.57448000  0.76090000  1.0
  H  H422  1  0.28314000  0.52657000  0.69700000  1.0
  H  H423  1  0.19416000  0.53808000  0.71529000  1.0
  H  H424  1  0.26254000  0.46547000  0.70800000  1.0
  H  H425  1  0.18806000  0.48343000  0.68365000  1.0
  H  H426  1  0.17420000  0.52579000  0.78158000  1.0
  H  H427  1  0.25138000  0.50738000  0.80375000  1.0
  H  H428  1  0.24286000  0.45398000  0.77073000  1.0
  H  H429  1  0.15488000  0.46409000  0.79049000  1.0
  H  H430  1  0.17510000  0.41660000  0.73220000  1.0
  H  H431  1  0.11872000  0.43463000  0.69988000  1.0
  H  H432  1  0.59304000  0.24403000  0.00884000  1.0
  H  H433  1  0.77118000  0.24816000  0.91382000  1.0
  H  H434  1  0.70536000  0.21333000  0.91495000  1.0
  H  H435  1  0.72726000  0.17817000  0.97891000  1.0
  H  H436  1  0.64334000  0.19966000  0.96689000  1.0
  H  H437  1  0.73306000  0.21053000  0.03303000  1.0
  H  H438  1  0.64452000  0.18963000  0.02910000  1.0
  H  H439  1  0.65352000  0.26571000  0.95466000  1.0
  H  H440  1  0.74366000  0.28535000  0.95929000  1.0
  H  H441  1  0.74368000  0.27383000  0.02125000  1.0
  H  H442  1  0.66212000  0.29716000  0.00929000  1.0
  H  H443  1  0.60942000  0.27971000  0.06209000  1.0
  H  H444  1  0.67634000  0.24927000  0.07516000  1.0
  H  H445  1  0.09698000  0.46521000  0.30216000  1.0
  H  H446  1  0.30054000  0.39294000  0.25202000  1.0
  H  H447  1  0.22510000  0.37726000  0.27908000  1.0
  H  H448  1  0.26010000  0.42696000  0.34095000  1.0
  H  H449  1  0.17102000  0.41580000  0.32359000  1.0
  H  H450  1  0.24462000  0.48790000  0.32802000  1.0
  H  H451  1  0.16796000  0.47153000  0.35351000  1.0
  H  H452  1  0.15430000  0.42587000  0.25734000  1.0
  H  H453  1  0.23338000  0.44276000  0.23381000  1.0
  H  H454  1  0.22774000  0.49740000  0.26492000  1.0
  H  H455  1  0.13962000  0.48744000  0.24630000  1.0
  H  H456  1  0.16200000  0.53686000  0.30244000  1.0
  H  H457  1  0.10416000  0.52078000  0.33621000  1.0
  H  H458  1  0.73064000  0.21723000  0.50756000  1.0
  H  H459  1  0.56694000  0.21887000  0.41115000  1.0
  H  H460  1  0.62442000  0.25604000  0.41685000  1.0
  H  H461  1  0.59374000  0.28332000  0.48323000  1.0
  H  H462  1  0.68060000  0.26456000  0.46982000  1.0
  H  H463  1  0.58624000  0.24616000  0.53429000  1.0
  H  H464  1  0.67348000  0.26868000  0.53257000  1.0
  H  H465  1  0.67660000  0.19937000  0.45167000  1.0
  H  H466  1  0.58742000  0.17820000  0.45415000  1.0
  H  H467  1  0.58122000  0.18427000  0.51690000  1.0
  H  H468  1  0.66534000  0.16320000  0.50330000  1.0
  H  H469  1  0.71368000  0.17673000  0.55734000  1.0
  H  H470  1  0.64304000  0.20457000  0.57301000  1.0
  H  H471  1  0.19202000  0.98411000  0.28463000  1.0
  H  H472  1  0.04268000  0.89174000  0.29141000  1.0
  H  H473  1  0.10816000  0.86810000  0.26570000  1.0
  H  H474  1  0.20482000  0.90015000  0.24028000  1.0
  H  H475  1  0.19620000  0.91929000  0.28252000  1.0
  H  H476  1  0.20110000  0.95657000  0.21212000  1.0
  H  H477  1  0.27372000  0.95458000  0.24288000  1.0
  H  H478  1  0.07344000  0.95083000  0.29708000  1.0
  H  H479  1  0.00466000  0.95196000  0.26393000  1.0
  H  H480  1  0.08416000  0.98809000  0.22688000  1.0
  H  H481  1  0.07392000  0.00709000  0.26897000  1.0
  H  H482  1  0.17410000  0.04044000  0.25020000  1.0
  H  H483  1  0.21770000  0.01778000  0.21601000  1.0
  H  H484  1  0.74906000  0.74348000  0.53618000  1.0
  H  H485  1  0.56930000  0.74852000  0.63085000  1.0
  H  H486  1  0.63434000  0.71370000  0.63003000  1.0
  H  H487  1  0.61108000  0.67846000  0.56599000  1.0
  H  H488  1  0.69614000  0.69945000  0.57811000  1.0
  H  H489  1  0.60712000  0.71091000  0.51196000  1.0
  H  H490  1  0.69448000  0.68946000  0.51590000  1.0
  H  H491  1  0.68986000  0.76539000  0.59043000  1.0
  H  H492  1  0.60098000  0.78572000  0.58583000  1.0
  H  H493  1  0.60026000  0.77438000  0.52387000  1.0
  H  H494  1  0.68330000  0.79707000  0.53587000  1.0
  H  H495  1  0.73538000  0.77920000  0.48308000  1.0
  H  H496  1  0.66556000  0.74970000  0.47005000  1.0
  H  H497  1  0.17830000  0.96839000  0.76442000  1.0
  H  H498  1  0.02716000  0.05901000  0.75615000  1.0
  H  H499  1  0.09294000  0.08308000  0.78047000  1.0
  H  H500  1  0.18486000  0.05210000  0.80947000  1.0
  H  H501  1  0.18230000  0.03316000  0.76704000  1.0
  H  H502  1  0.17792000  0.99544000  0.83718000  1.0
  H  H503  1  0.25448000  0.99813000  0.80739000  1.0
  H  H504  1  0.06132000  0.00063000  0.75068000  1.0
  H  H505  1  0.98836000  0.99895000  0.78295000  1.0
  H  H506  1  0.06338000  0.96328000  0.82087000  1.0
  H  H507  1  0.05850000  0.94434000  0.77864000  1.0
  H  H508  1  0.15652000  0.91163000  0.79823000  1.0
  H  H509  1  0.19588000  0.93434000  0.83301000  1.0
  H  H510  1  0.31044000  0.18450000  0.06576000  1.0
  H  H511  1  0.12600000  0.24051000  0.98736000  1.0
  H  H512  1  0.09062000  0.20533000  0.01231000  1.0
  H  H513  1  0.18266000  0.14889000  0.00017000  1.0
  H  H514  1  0.18178000  0.16899000  0.04202000  1.0
  H  H515  1  0.31688000  0.15501000  0.99436000  1.0
  H  H516  1  0.29222000  0.13277000  0.03364000  1.0
  H  H517  1  0.21656000  0.23124000  0.04660000  1.0
  H  H518  1  0.24306000  0.25433000  0.00796000  1.0
  H  H519  1  0.35456000  0.22004000  0.99968000  1.0
  H  H520  1  0.35222000  0.23856000  0.04217000  1.0
  H  H521  1  0.43774000  0.17416000  0.01595000  1.0
  H  H522  1  0.41464000  0.14646000  0.05159000  1.0
  H  H523  1  0.78914000  0.50190000  0.27143000  1.0
  H  H524  1  0.60518000  0.45675000  0.33367000  1.0
  H  H525  1  0.66066000  0.43946000  0.36713000  1.0
  H  H526  1  0.77910000  0.46239000  0.35824000  1.0
  H  H527  1  0.73406000  0.49390000  0.33175000  1.0
  H  H528  1  0.86652000  0.44724000  0.31195000  1.0
  H  H529  1  0.86814000  0.49282000  0.32043000  1.0
  H  H530  1  0.66426000  0.47233000  0.27919000  1.0
  H  H531  1  0.66280000  0.42661000  0.27112000  1.0
  H  H532  1  0.79642000  0.42572000  0.25940000  1.0
  H  H533  1  0.75216000  0.45711000  0.23265000  1.0
  H  H534  1  0.87034000  0.48571000  0.22408000  1.0
  H  H535  1  0.91652000  0.45597000  0.25197000  1.0
  H  H536  1  0.31326000  0.72488000  0.98831000  1.0
  H  H537  1  0.12358000  0.78249000  0.03272000  1.0
  H  H538  1  0.17622000  0.81867000  0.04721000  1.0
  H  H539  1  0.29540000  0.81270000  0.02429000  1.0
  H  H540  1  0.25306000  0.78352000  0.99411000  1.0
  H  H541  1  0.38702000  0.76981000  0.04089000  1.0
  H  H542  1  0.38798000  0.77666000  0.99505000  1.0
  H  H543  1  0.18834000  0.72967000  0.01823000  1.0
  H  H544  1  0.18784000  0.72347000  0.06423000  1.0
  H  H545  1  0.32232000  0.71602000  0.06472000  1.0
  H  H546  1  0.28072000  0.68664000  0.03467000  1.0
  H  H547  1  0.39898000  0.68087000  0.00438000  1.0
  H  H548  1  0.44180000  0.71014000  0.03413000  1.0
  H  H549  1  0.80496000  0.45390000  0.76491000  1.0
  H  H550  1  0.63070000  0.50079000  0.70231000  1.0
  H  H551  1  0.68992000  0.52013000  0.67031000  1.0
  H  H552  1  0.80628000  0.49637000  0.67945000  1.0
  H  H553  1  0.75710000  0.46410000  0.70444000  1.0
  H  H554  1  0.88904000  0.50968000  0.72696000  1.0
  H  H555  1  0.88976000  0.46440000  0.71696000  1.0
  H  H556  1  0.68222000  0.48412000  0.75711000  1.0
  H  H557  1  0.68172000  0.52954000  0.76670000  1.0
  H  H558  1  0.81402000  0.52962000  0.77955000  1.0
  H  H559  1  0.76552000  0.49751000  0.80484000  1.0
  H  H560  1  0.88156000  0.46865000  0.81353000  1.0
  H  H561  1  0.93252000  0.49859000  0.78658000  1.0
  H  H562  1  0.02894000  0.68417000  0.47834000  1.0
  H  H563  1  0.21534000  0.74115000  0.55618000  1.0
  H  H564  1  0.25026000  0.70589000  0.53148000  1.0
  H  H565  1  0.15762000  0.64933000  0.54363000  1.0
  H  H566  1  0.15810000  0.66930000  0.50171000  1.0
  H  H567  1  0.02360000  0.65496000  0.54987000  1.0
  H  H568  1  0.04734000  0.63269000  0.51057000  1.0
  H  H569  1  0.12418000  0.73130000  0.49697000  1.0
  H  H570  1  0.09854000  0.75454000  0.53556000  1.0
  H  H571  1  0.98664000  0.72000000  0.54437000  1.0
  H  H572  1  0.98862000  0.73824000  0.50175000  1.0
  H  H573  1  0.90264000  0.67382000  0.52886000  1.0
  H  H574  1  0.92454000  0.64585000  0.49338000  1.0
  H  H575  1  0.53244000  0.95241000  0.77240000  1.0
  H  H576  1  0.71382000  0.99897000  0.83100000  1.0
  H  H577  1  0.65814000  0.01586000  0.86534000  1.0
  H  H578  1  0.53928000  0.99325000  0.85833000  1.0
  H  H579  1  0.58548000  0.96155000  0.83180000  1.0
  H  H580  1  0.45214000  0.00716000  0.81279000  1.0
  H  H581  1  0.45152000  0.96174000  0.82210000  1.0
  H  H582  1  0.65562000  0.98301000  0.77776000  1.0
  H  H583  1  0.65540000  0.02865000  0.76923000  1.0
  H  H584  1  0.52174000  0.02825000  0.75930000  1.0
  H  H585  1  0.56746000  0.99691000  0.73233000  1.0
  H  H586  1  0.45120000  0.96653000  0.72574000  1.0
  H  H587  1  0.40326000  0.99657000  0.75331000  1.0
  H  H588  1  0.00792000  0.27159000  0.57054000  1.0
  H  H589  1  0.19814000  0.21517000  0.49273000  1.0
  H  H590  1  0.23356000  0.25132000  0.51573000  1.0
  H  H591  1  0.14402000  0.30707000  0.50612000  1.0
  H  H592  1  0.14028000  0.28626000  0.54764000  1.0
  H  H593  1  0.01026000  0.30261000  0.49975000  1.0
  H  H594  1  0.03218000  0.32368000  0.53966000  1.0
  H  H595  1  0.10226000  0.22439000  0.55101000  1.0
  H  H596  1  0.07844000  0.20215000  0.51187000  1.0
  H  H597  1  0.96922000  0.23760000  0.50357000  1.0
  H  H598  1  0.96674000  0.21833000  0.54574000  1.0
  H  H599  1  0.88702000  0.28463000  0.51989000  1.0
  H  H600  1  0.90702000  0.31070000  0.55684000  1.0
  H  H601  1  0.54804000  0.00345000  0.28026000  1.0
  H  H602  1  0.73824000  0.95944000  0.22224000  1.0
  H  H603  1  0.68610000  0.94600000  0.18595000  1.0
  H  H604  1  0.56628000  0.96715000  0.19252000  1.0
  H  H605  1  0.60890000  0.99771000  0.22123000  1.0
  H  H606  1  0.47344000  0.95031000  0.23615000  1.0
  H  H607  1  0.47376000  0.99613000  0.22911000  1.0
  H  H608  1  0.67210000  0.97398000  0.27485000  1.0
  H  H609  1  0.67106000  0.92797000  0.28107000  1.0
  H  H610  1  0.53632000  0.92699000  0.28944000  1.0
  H  H611  1  0.57832000  0.95728000  0.31846000  1.0
  H  H612  1  0.46106000  0.98708000  0.32500000  1.0
  H  H613  1  0.41754000  0.95726000  0.29604000  1.0
  H  H614  1  0.89320000  0.02408000  0.90570000  1.0
  H  H615  1  0.93914000  0.86005000  0.06197000  1.0
  H  H616  1  0.94934000  0.90673000  0.01999000  1.0
  H  H617  1  0.93760000  0.98131000  0.10018000  1.0
  H  H618  1  0.92690000  0.93577000  0.14344000  1.0
  H  H619  1  0.98670000  0.96509000  0.00915000  1.0
  H  H620  1  0.98604000  0.99647000  0.04332000  1.0
  H  H621  1  0.84696000  0.96542000  0.00987000  1.0
  H  H622  1  0.84862000  0.99819000  0.04283000  1.0
  H  H623  1  0.90998000  0.10190000  0.98495000  1.0
  H  H624  1  0.89820000  0.05712000  0.02905000  1.0
  H  H625  1  0.88174000  0.97963000  0.95001000  1.0
  H  H626  1  0.44374000  0.52446000  0.63505000  1.0
  H  H627  1  0.39634000  0.35939000  0.48345000  1.0
  H  H628  1  0.38418000  0.40604000  0.52532000  1.0
  H  H629  1  0.37270000  0.47982000  0.44456000  1.0
  H  H630  1  0.38514000  0.43440000  0.40144000  1.0
  H  H631  1  0.34470000  0.46327000  0.53746000  1.0
  H  H632  1  0.33246000  0.49389000  0.50317000  1.0
  H  H633  1  0.48334000  0.46855000  0.52880000  1.0
  H  H634  1  0.46860000  0.50076000  0.49614000  1.0
  H  H635  1  0.41850000  0.60307000  0.55724000  1.0
  H  H636  1  0.42564000  0.55885000  0.51246000  1.0
  H  H637  1  0.45084000  0.48063000  0.59009000  1.0
  N  N638  1  0.92574000  0.80479000  0.21165000  1.0
  N  N639  1  0.92856000  0.78169000  0.18672000  1.0
  N  N640  1  0.81998000  0.86328000  0.21359000  1.0
  N  N641  1  0.67224000  0.87808000  0.21926000  1.0
  N  N642  1  0.92654000  0.75298000  0.23653000  1.0
  N  N643  1  0.03726000  0.78611000  0.12891000  1.0
  N  N644  1  0.18592000  0.78458000  0.11418000  1.0
  N  N645  1  0.42170000  0.64902000  0.71051000  1.0
  N  N646  1  0.41446000  0.67346000  0.68721000  1.0
  N  N647  1  0.53774000  0.59458000  0.70647000  1.0
  N  N648  1  0.68736000  0.58398000  0.70849000  1.0
  N  N649  1  0.40570000  0.69845000  0.73886000  1.0
  N  N650  1  0.32346000  0.67713000  0.62531000  1.0
  N  N651  1  0.17810000  0.68775000  0.60958000  1.0
  N  N652  1  0.92572000  0.17477000  0.85618000  1.0
  N  N653  1  0.91796000  0.15088000  0.83228000  1.0
  N  N654  1  0.01592000  0.17666000  0.91849000  1.0
  N  N655  1  0.16180000  0.18639000  0.93440000  1.0
  N  N656  1  0.93478000  0.20102000  0.80507000  1.0
  N  N657  1  0.80394000  0.09421000  0.83311000  1.0
  N  N658  1  0.65526000  0.08138000  0.82788000  1.0
  N  N659  1  0.39800000  0.28237000  0.35707000  1.0
  N  N660  1  0.40122000  0.30576000  0.33239000  1.0
  N  N661  1  0.30668000  0.27880000  0.42028000  1.0
  N  N662  1  0.16174000  0.26549000  0.43780000  1.0
  N  N663  1  0.39062000  0.25452000  0.30689000  1.0
  N  N664  1  0.51366000  0.36189000  0.33372000  1.0
  N  N665  1  0.66318000  0.37406000  0.33077000  1.0
  N  N666  1  0.82606000  0.71350000  0.49117000  1.0
  N  N667  1  0.31600000  0.94964000  0.77693000  1.0
  N  N668  1  0.80542000  0.24306000  0.55485000  1.0
  N  N669  1  0.33138000  0.00366000  0.27310000  1.0
  N  N670  1  0.51480000  0.21400000  0.05372000  1.0
  N  N671  1  0.00192000  0.50251000  0.27674000  1.0
  N  N672  1  0.52880000  0.73502000  0.98768000  1.0
  N  N673  1  0.01622000  0.45194000  0.76015000  1.0
  N  N674  1  0.89864000  0.77655000  0.30256000  1.0
  N  N675  1  0.88560000  0.73636000  0.36497000  1.0
  N  N676  1  0.39080000  0.76447000  0.71605000  1.0
  N  N677  1  0.40896000  0.82815000  0.75321000  1.0
  N  N678  1  0.88308000  0.17683000  0.74270000  1.0
  N  N679  1  0.85202000  0.21479000  0.68064000  1.0
  N  N680  1  0.38906000  0.18967000  0.33324000  1.0
  N  N681  1  0.41814000  0.12610000  0.29775000  1.0
  N  N682  1  0.42916000  0.27833000  0.24186000  1.0
  N  N683  1  0.45050000  0.23884000  0.17944000  1.0
  N  N684  1  0.93631000  0.68859000  0.20956000  1.0
  N  N685  1  0.91684000  0.62457000  0.24592000  1.0
  N  N686  1  0.43736000  0.67322000  0.80249000  1.0
  N  N687  1  0.43366000  0.70999000  0.86665000  1.0
  N  N688  1  0.94862000  0.26652000  0.82951000  1.0
  N  N689  1  0.92832000  0.33010000  0.79282000  1.0
  N  N690  1  0.77494000  0.74292000  0.06157000  1.0
  N  N691  1  0.66860000  0.75955000  0.00878000  1.0
  N  N692  1  0.27486000  0.52171000  0.75171000  1.0
  N  N693  1  0.16002000  0.47149000  0.73595000  1.0
  N  N694  1  0.74202000  0.23076000  0.96453000  1.0
  N  N695  1  0.64270000  0.24440000  0.02248000  1.0
  N  N696  1  0.25436000  0.43022000  0.28615000  1.0
  N  N697  1  0.14262000  0.48204000  0.30105000  1.0
  N  N698  1  0.58486000  0.23213000  0.46395000  1.0
  N  N699  1  0.68006000  0.21484000  0.52105000  1.0
  N  N700  1  0.09904000  0.92150000  0.25178000  1.0
  N  N701  1  0.18076000  0.98573000  0.25827000  1.0
  N  N702  1  0.59926000  0.73115000  0.58034000  1.0
  N  N703  1  0.69938000  0.74421000  0.52258000  1.0
  N  N704  1  0.08086000  0.03014000  0.79626000  1.0
  N  N705  1  0.16380000  0.96645000  0.79062000  1.0
  N  N706  1  0.20714000  0.20269000  0.99976000  1.0
  N  N707  1  0.33294000  0.18411000  0.04070000  1.0
  N  N708  1  0.71486000  0.44133000  0.31779000  1.0
  N  N709  1  0.81728000  0.47843000  0.27297000  1.0
  N  N710  1  0.23534000  0.77108000  0.04726000  1.0
  N  N711  1  0.34160000  0.72817000  0.01143000  1.0
  N  N712  1  0.73826000  0.51623000  0.71999000  1.0
  N  N713  1  0.83420000  0.47733000  0.76441000  1.0
  N  N714  1  0.13366000  0.70303000  0.54393000  1.0
  N  N715  1  0.00704000  0.68386000  0.50352000  1.0
  N  N716  1  0.60378000  0.01400000  0.81682000  1.0
  N  N717  1  0.50298000  0.97555000  0.77383000  1.0
  N  N718  1  0.11702000  0.25360000  0.50472000  1.0
  N  N719  1  0.98824000  0.27265000  0.54531000  1.0
  N  N720  1  0.62522000  0.94469000  0.23376000  1.0
  N  N721  1  0.51896000  0.98020000  0.27729000  1.0
  N  N722  1  0.94492000  0.94680000  0.05754000  1.0
  N  N723  1  0.37710000  0.44565000  0.48746000  1.0
  O  O724  1  0.83460000  0.78634000  0.12870000  1.0
  O  O725  1  0.92084000  0.75006000  0.11218000  1.0
  O  O726  1  0.92606000  0.87420000  0.16521000  1.0
  O  O727  1  0.93238000  0.83378000  0.12153000  1.0
  O  O728  1  0.02290000  0.86324000  0.21110000  1.0
  O  O729  1  0.93712000  0.87621000  0.24949000  1.0
  O  O730  1  0.52604000  0.67020000  0.63637000  1.0
  O  O731  1  0.45186000  0.71008000  0.61705000  1.0
  O  O732  1  0.43238000  0.58401000  0.65935000  1.0
  O  O733  1  0.42482000  0.62673000  0.61796000  1.0
  O  O734  1  0.33580000  0.58760000  0.70776000  1.0
  O  O735  1  0.42412000  0.57501000  0.74351000  1.0
  O  O736  1  0.00576000  0.08958000  0.83592000  1.0
  O  O737  1  0.92162000  0.07814000  0.79752000  1.0
  O  O738  1  0.91204000  0.12630000  0.92448000  1.0
  O  O739  1  0.90470000  0.08439000  0.88222000  1.0
  O  O740  1  0.81300000  0.17049000  0.90666000  1.0
  O  O741  1  0.88806000  0.20955000  0.92760000  1.0
  O  O742  1  0.31064000  0.36456000  0.33137000  1.0
  O  O743  1  0.40164000  0.37927000  0.29635000  1.0
  O  O744  1  0.39978000  0.33288000  0.42377000  1.0
  O  O745  1  0.40218000  0.37362000  0.38021000  1.0
  O  O746  1  0.50822000  0.29265000  0.40675000  1.0
  O  O747  1  0.44014000  0.25104000  0.42905000  1.0
  Zn  Zn748  1  0.92270000  0.85316000  0.20791000  1.0
  Zn  Zn749  1  0.93404000  0.78953000  0.13895000  1.0
  Zn  Zn750  1  0.43380000  0.60155000  0.70342000  1.0
  Zn  Zn751  1  0.42338000  0.66935000  0.63902000  1.0
  Zn  Zn752  1  0.91578000  0.16945000  0.90440000  1.0
  Zn  Zn753  1  0.90710000  0.10292000  0.83832000  1.0
  Zn  Zn754  1  0.40582000  0.28928000  0.40506000  1.0
  Zn  Zn755  1  0.40950000  0.35383000  0.33715000  1.0
