# generated using pymatgen
data_MnC8(N3O)4
_symmetry_space_group_name_H-M   'P 1'
_cell_length_a   43.47990000
_cell_length_b   43.86900000
_cell_length_c   44.25540000
_cell_angle_alpha   89.80700000
_cell_angle_beta   89.99700000
_cell_angle_gamma   90.19300000
_symmetry_Int_Tables_number   1
_chemical_formula_structural   MnC8(N3O)4
_chemical_formula_sum   'Mn36 C288 N432 O144'
_cell_volume   84412.66527298
_cell_formula_units_Z   36
loop_
 _symmetry_equiv_pos_site_id
 _symmetry_equiv_pos_as_xyz
  1  'x, y, z'
loop_
 _atom_site_type_symbol
 _atom_site_label
 _atom_site_symmetry_multiplicity
 _atom_site_fract_x
 _atom_site_fract_y
 _atom_site_fract_z
 _atom_site_occupancy
  Mn  Mn0  1  0.44419000  0.80050000  0.24144000  1.0
  Mn  Mn1  1  0.56358000  0.88512000  0.28457000  1.0
  Mn  Mn2  1  0.50150000  0.84344000  0.26671000  1.0
  Mn  Mn3  1  0.26818000  0.95854000  0.87361000  1.0
  Mn  Mn4  1  0.26506000  0.84066000  0.96674000  1.0
  Mn  Mn5  1  0.26391000  0.90201000  0.92294000  1.0
  Mn  Mn6  1  0.92056000  0.61394000  0.84909000  1.0
  Mn  Mn7  1  0.05524000  0.55662000  0.87846000  1.0
  Mn  Mn8  1  0.98700000  0.57800000  0.85499000  1.0
  Mn  Mn9  1  0.67226000  0.49878000  0.16631000  1.0
  Mn  Mn10  1  0.80345000  0.48970000  0.24257000  1.0
  Mn  Mn11  1  0.73612000  0.48995000  0.20629000  1.0
  Mn  Mn12  1  0.39641000  0.31723000  0.25157000  1.0
  Mn  Mn13  1  0.38232000  0.26892000  0.39444000  1.0
  Mn  Mn14  1  0.38836000  0.29314000  0.32322000  1.0
  Mn  Mn15  1  0.16480000  0.01747000  0.47883000  1.0
  Mn  Mn16  1  0.07457000  0.94240000  0.38287000  1.0
  Mn  Mn17  1  0.12074000  0.98017000  0.42934000  1.0
  Mn  Mn18  1  0.97476000  0.10113000  0.73851000  1.0
  Mn  Mn19  1  0.84623000  0.03734000  0.79192000  1.0
  Mn  Mn20  1  0.91086000  0.06951000  0.76563000  1.0
  Mn  Mn21  1  0.72216000  0.39684000  0.60947000  1.0
  Mn  Mn22  1  0.58681000  0.37509000  0.67368000  1.0
  Mn  Mn23  1  0.65628000  0.39161000  0.64700000  1.0
  Mn  Mn24  1  0.80186000  0.71454000  0.60900000  1.0
  Mn  Mn25  1  0.81547000  0.76224000  0.46757000  1.0
  Mn  Mn26  1  0.81035000  0.73391000  0.53642000  1.0
  Mn  Mn27  1  0.01341000  0.15870000  0.10157000  1.0
  Mn  Mn28  1  0.05981000  0.30152000  0.11100000  1.0
  Mn  Mn29  1  0.04145000  0.22873000  0.09895000  1.0
  Mn  Mn30  1  0.57384000  0.22735000  0.00536000  1.0
  Mn  Mn31  1  0.63521000  0.09127000  0.98532000  1.0
  Mn  Mn32  1  0.60665000  0.15882000  0.00244000  1.0
  Mn  Mn33  1  0.33343000  0.72078000  0.55971000  1.0
  Mn  Mn34  1  0.29336000  0.58087000  0.59816000  1.0
  Mn  Mn35  1  0.30979000  0.65045000  0.57337000  1.0
  C  C36  1  0.46164000  0.79353000  0.28935000  1.0
  C  C37  1  0.47577000  0.84126000  0.20151000  1.0
  C  C38  1  0.43690000  0.86202000  0.27116000  1.0
  C  C39  1  0.53608000  0.89661000  0.24275000  1.0
  C  C40  1  0.53481000  0.84377000  0.32825000  1.0
  C  C41  1  0.56648000  0.82403000  0.25467000  1.0
  C  C42  1  0.22240000  0.93602000  0.88210000  1.0
  C  C43  1  0.32207000  0.93551000  0.90205000  1.0
  C  C44  1  0.25479000  0.96569000  0.94049000  1.0
  C  C45  1  0.30719000  0.87097000  0.96382000  1.0
  C  C46  1  0.20811000  0.86252000  0.94211000  1.0
  C  C47  1  0.27644000  0.83978000  0.89993000  1.0
  C  C48  1  0.95060000  0.60875000  0.80774000  1.0
  C  C49  1  0.94181000  0.59281000  0.90664000  1.0
  C  C50  1  0.92965000  0.54572000  0.84147000  1.0
  C  C51  1  0.01295000  0.53226000  0.89866000  1.0
  C  C52  1  0.04406000  0.58499000  0.81834000  1.0
  C  C53  1  0.03150000  0.61639000  0.89141000  1.0
  C  C54  1  0.69566000  0.45288000  0.16806000  1.0
  C  C55  1  0.70343000  0.55026000  0.19199000  1.0
  C  C56  1  0.67410000  0.48251000  0.23268000  1.0
  C  C57  1  0.76875000  0.52768000  0.25061000  1.0
  C  C58  1  0.77734000  0.43439000  0.21612000  1.0
  C  C59  1  0.79719000  0.50693000  0.17747000  1.0
  C  C60  1  0.42986000  0.33507000  0.28723000  1.0
  C  C61  1  0.34107000  0.28545000  0.27329000  1.0
  C  C62  1  0.41831000  0.25668000  0.27292000  1.0
  C  C63  1  0.34269000  0.26158000  0.36234000  1.0
  C  C64  1  0.44090000  0.28774000  0.36940000  1.0
  C  C65  1  0.37057000  0.33368000  0.37459000  1.0
  C  C66  1  0.14880000  0.96946000  0.49021000  1.0
  C  C67  1  0.14553000  0.04585000  0.42329000  1.0
  C  C68  1  0.18802000  0.97703000  0.42763000  1.0
  C  C69  1  0.09031000  0.98989000  0.37027000  1.0
  C  C70  1  0.09645000  0.91422000  0.43617000  1.0
  C  C71  1  0.05399000  0.98237000  0.43508000  1.0
  C  C72  1  0.95705000  0.11552000  0.78387000  1.0
  C  C73  1  0.93606000  0.06393000  0.70122000  1.0
  C  C74  1  0.97201000  0.04222000  0.77414000  1.0
  C  C75  1  0.86744000  0.02049000  0.74845000  1.0
  C  C76  1  0.88023000  0.08073000  0.82763000  1.0
  C  C77  1  0.84851000  0.09419000  0.75327000  1.0
  C  C78  1  0.69192000  0.43879000  0.61571000  1.0
  C  C79  1  0.69779000  0.33849000  0.62739000  1.0
  C  C80  1  0.71616000  0.40048000  0.67749000  1.0
  C  C81  1  0.62710000  0.34442000  0.68686000  1.0
  C  C82  1  0.60446000  0.43695000  0.65315000  1.0
  C  C83  1  0.60370000  0.36550000  0.61034000  1.0
  C  C84  1  0.77439000  0.68881000  0.57290000  1.0
  C  C85  1  0.82981000  0.77253000  0.58982000  1.0
  C  C86  1  0.85594000  0.69633000  0.57283000  1.0
  C  C87  1  0.84976000  0.77815000  0.50315000  1.0
  C  C88  1  0.78648000  0.70254000  0.48189000  1.0
  C  C89  1  0.76378000  0.77543000  0.50619000  1.0
  C  C90  1  0.01034000  0.18637000  0.05826000  1.0
  C  C91  1  0.03600000  0.18722000  0.15502000  1.0
  C  C92  1  0.07947000  0.17524000  0.08648000  1.0
  C  C93  1  0.08394000  0.26489000  0.13821000  1.0
  C  C94  1  0.02909000  0.28058000  0.05521000  1.0
  C  C95  1  0.00225000  0.27408000  0.13239000  1.0
  C  C96  1  0.56517000  0.19315000  0.04288000  1.0
  C  C97  1  0.60731000  0.20853000  0.95235000  1.0
  C  C98  1  0.63760000  0.21274000  0.02846000  1.0
  C  C99  1  0.66031000  0.13396000  0.96901000  1.0
  C  C100  1  0.59242000  0.10164000  0.03640000  1.0
  C  C101  1  0.57841000  0.11317000  0.95914000  1.0
  C  C102  1  0.33592000  0.68497000  0.52219000  1.0
  C  C103  1  0.32287000  0.70060000  0.62072000  1.0
  C  C104  1  0.26750000  0.70129000  0.55800000  1.0
  C  C105  1  0.27245000  0.62170000  0.62283000  1.0
  C  C106  1  0.31217000  0.59339000  0.53507000  1.0
  C  C107  1  0.35457000  0.60789000  0.60514000  1.0
  C  C108  1  0.46684000  0.74259000  0.36652000  1.0
  C  C109  1  0.47324000  0.77815000  0.31642000  1.0
  C  C110  1  0.45532000  0.72332000  0.39138000  1.0
  C  C111  1  0.42464000  0.69288000  0.43572000  1.0
  C  C112  1  0.40346000  0.68054000  0.45866000  1.0
  C  C113  1  0.35945000  0.67309000  0.50176000  1.0
  C  C114  1  0.15435000  0.12443000  0.05739000  1.0
  C  C115  1  0.10843000  0.16027000  0.07843000  1.0
  C  C116  1  0.17549000  0.10239000  0.04366000  1.0
  C  C117  1  0.20822000  0.05871000  0.01486000  1.0
  C  C118  1  0.22310000  0.03438000  0.99753000  1.0
  C  C119  1  0.24556000  0.98937000  0.96200000  1.0
  C  C120  1  0.97837000  0.61764000  0.71994000  1.0
  C  C121  1  0.96859000  0.60776000  0.77986000  1.0
  C  C122  1  0.97458000  0.62642000  0.68798000  1.0
  C  C123  1  0.95242000  0.64635000  0.63401000  1.0
  C  C124  1  0.93319000  0.65846000  0.60932000  1.0
  C  C125  1  0.88647000  0.68296000  0.57652000  1.0
  C  C126  1  0.72460000  0.36686000  0.14360000  1.0
  C  C127  1  0.71032000  0.42342000  0.16348000  1.0
  C  C128  1  0.72631000  0.33711000  0.12874000  1.0
  C  C129  1  0.71528000  0.28594000  0.09630000  1.0
  C  C130  1  0.70161000  0.26231000  0.07715000  1.0
  C  C131  1  0.66379000  0.22649000  0.04391000  1.0
  C  C132  1  0.46549000  0.19069000  0.22617000  1.0
  C  C133  1  0.43319000  0.22872000  0.26262000  1.0
  C  C134  1  0.48346000  0.17597000  0.20205000  1.0
  C  C135  1  0.51592000  0.16043000  0.15195000  1.0
  C  C136  1  0.53239000  0.15940000  0.12285000  1.0
  C  C137  1  0.55796000  0.17308000  0.06838000  1.0
  C  C138  1  0.15359000  0.87539000  0.50280000  1.0
  C  C139  1  0.14624000  0.93611000  0.49265000  1.0
  C  C140  1  0.16085000  0.84327000  0.50963000  1.0
  C  C141  1  0.18137000  0.78659000  0.52413000  1.0
  C  C142  1  0.19740000  0.75836000  0.53308000  1.0
  C  C143  1  0.23746000  0.71392000  0.54996000  1.0
  C  C144  1  0.97218000  0.20848000  0.97659000  1.0
  C  C145  1  0.99750000  0.20201000  0.03214000  1.0
  C  C146  1  0.95979000  0.20231000  0.94650000  1.0
  C  C147  1  0.94548000  0.17953000  0.89150000  1.0
  C  C148  1  0.94254000  0.16294000  0.86313000  1.0
  C  C149  1  0.94656000  0.13136000  0.81082000  1.0
  C  C150  1  0.66191000  0.51973000  0.58034000  1.0
  C  C151  1  0.67335000  0.46453000  0.60567000  1.0
  C  C152  1  0.66591000  0.54966000  0.56602000  1.0
  C  C153  1  0.68866000  0.60414000  0.54711000  1.0
  C  C154  1  0.70825000  0.63107000  0.54278000  1.0
  C  C155  1  0.75136000  0.67460000  0.55358000  1.0
  C  C156  1  0.60995000  0.44514000  0.29221000  1.0
  C  C157  1  0.65353000  0.47165000  0.25677000  1.0
  C  C158  1  0.58444000  0.42835000  0.30655000  1.0
  C  C159  1  0.53386000  0.39530000  0.32203000  1.0
  C  C160  1  0.50549000  0.37689000  0.32284000  1.0
  C  C161  1  0.45326000  0.34606000  0.30826000  1.0
  C  C162  1  0.36632000  0.91229000  0.30972000  1.0
  C  C163  1  0.41312000  0.88217000  0.28297000  1.0
  C  C164  1  0.34020000  0.92499000  0.32613000  1.0
  C  C165  1  0.29127000  0.94316000  0.35914000  1.0
  C  C166  1  0.26469000  0.95169000  0.37740000  1.0
  C  C167  1  0.21511000  0.96720000  0.41083000  1.0
  C  C168  1  0.13163000  0.92105000  0.86630000  1.0
  C  C169  1  0.19196000  0.92194000  0.88226000  1.0
  C  C170  1  0.10162000  0.92924000  0.85332000  1.0
  C  C171  1  0.05273000  0.95709000  0.82706000  1.0
  C  C172  1  0.02954000  0.97650000  0.81247000  1.0
  C  C173  1  0.99101000  0.01785000  0.78710000  1.0
  C  C174  1  0.77692000  0.41875000  0.74792000  1.0
  C  C175  1  0.73551000  0.40421000  0.70441000  1.0
  C  C176  1  0.80096000  0.43030000  0.76823000  1.0
  C  C177  1  0.84636000  0.45783000  0.80024000  1.0
  C  C178  1  0.87037000  0.47643000  0.81462000  1.0
  C  C179  1  0.91127000  0.51845000  0.83490000  1.0
  C  C180  1  0.56931000  0.81314000  0.40904000  1.0
  C  C181  1  0.53852000  0.83083000  0.35856000  1.0
  C  C182  1  0.59273000  0.80660000  0.43218000  1.0
  C  C183  1  0.64311000  0.79709000  0.46718000  1.0
  C  C184  1  0.67305000  0.79277000  0.48200000  1.0
  C  C185  1  0.73120000  0.78304000  0.50208000  1.0
  C  C186  1  0.40548000  0.97753000  0.92005000  1.0
  C  C187  1  0.35336000  0.94536000  0.90927000  1.0
  C  C188  1  0.43125000  0.99856000  0.92481000  1.0
  C  C189  1  0.47614000  0.04104000  0.93119000  1.0
  C  C190  1  0.50119000  0.06306000  0.93532000  1.0
  C  C191  1  0.55011000  0.09949000  0.94736000  1.0
  C  C192  1  0.19265000  0.64623000  0.66540000  1.0
  C  C193  1  0.24586000  0.63898000  0.63375000  1.0
  C  C194  1  0.16500000  0.64399000  0.68476000  1.0
  C  C195  1  0.11851000  0.63170000  0.72422000  1.0
  C  C196  1  0.09586000  0.62212000  0.74737000  1.0
  C  C197  1  0.05956000  0.59983000  0.79248000  1.0
  C  C198  1  0.80863000  0.34743000  0.20117000  1.0
  C  C199  1  0.78190000  0.40194000  0.21163000  1.0
  C  C200  1  0.83184000  0.32446000  0.19453000  1.0
  C  C201  1  0.88457000  0.29629000  0.17860000  1.0
  C  C202  1  0.91520000  0.28761000  0.16858000  1.0
  C  C203  1  0.97199000  0.27834000  0.14574000  1.0
  C  C204  1  0.26080000  0.24104000  0.24601000  1.0
  C  C205  1  0.31266000  0.26983000  0.26447000  1.0
  C  C206  1  0.23175000  0.22907000  0.23412000  1.0
  C  C207  1  0.17694000  0.21791000  0.20714000  1.0
  C  C208  1  0.14812000  0.22079000  0.19023000  1.0
  C  C209  1  0.10173000  0.24323000  0.15603000  1.0
  C  C210  1  0.93778000  0.80087000  0.52868000  1.0
  C  C211  1  0.87841000  0.78388000  0.51951000  1.0
  C  C212  1  0.96956000  0.81202000  0.52547000  1.0
  C  C213  1  0.02313000  0.83844000  0.50753000  1.0
  C  C214  1  0.04826000  0.85517000  0.49254000  1.0
  C  C215  1  0.08453000  0.89174000  0.45793000  1.0
  C  C216  1  0.74085000  0.17655000  0.94826000  1.0
  C  C217  1  0.68377000  0.15740000  0.96460000  1.0
  C  C218  1  0.77262000  0.17588000  0.93701000  1.0
  C  C219  1  0.82515000  0.15815000  0.90906000  1.0
  C  C220  1  0.84787000  0.14128000  0.89123000  1.0
  C  C221  1  0.87553000  0.10313000  0.85158000  1.0
  C  C222  1  0.44484000  0.58239000  0.62492000  1.0
  C  C223  1  0.38671000  0.60157000  0.61324000  1.0
  C  C224  1  0.47538000  0.56900000  0.63024000  1.0
  C  C225  1  0.52813000  0.53721000  0.63915000  1.0
  C  C226  1  0.55386000  0.51585000  0.64348000  1.0
  C  C227  1  0.59289000  0.46814000  0.65071000  1.0
  C  C228  1  0.62149000  0.74876000  0.23672000  1.0
  C  C229  1  0.58554000  0.79796000  0.24653000  1.0
  C  C230  1  0.64063000  0.72188000  0.23230000  1.0
  C  C231  1  0.67197000  0.66979000  0.22187000  1.0
  C  C232  1  0.68537000  0.64028000  0.21430000  1.0
  C  C233  1  0.70079000  0.58243000  0.19979000  1.0
  C  C234  1  0.45085000  0.88095000  0.11967000  1.0
  C  C235  1  0.47191000  0.85736000  0.17262000  1.0
  C  C236  1  0.43530000  0.89094000  0.09173000  1.0
  C  C237  1  0.40028000  0.90148000  0.04188000  1.0
  C  C238  1  0.37807000  0.90188000  0.01665000  1.0
  C  C239  1  0.33252000  0.88906000  0.97647000  1.0
  C  C240  1  0.12820000  0.81413000  0.92698000  1.0
  C  C241  1  0.17646000  0.85241000  0.93636000  1.0
  C  C242  1  0.10740000  0.78796000  0.92278000  1.0
  C  C243  1  0.07644000  0.73476000  0.91482000  1.0
  C  C244  1  0.06252000  0.70456000  0.91013000  1.0
  C  C245  1  0.04069000  0.64760000  0.89937000  1.0
  C  C246  1  0.84350000  0.53267000  0.09821000  1.0
  C  C247  1  0.81333000  0.51609000  0.14953000  1.0
  C  C248  1  0.85984000  0.54200000  0.07045000  1.0
  C  C249  1  0.88958000  0.55952000  0.01920000  1.0
  C  C250  1  0.90508000  0.56911000  0.99105000  1.0
  C  C251  1  0.93079000  0.58556000  0.93739000  1.0
  C  C252  1  0.18469000  0.11553000  0.37180000  1.0
  C  C253  1  0.15499000  0.07046000  0.40258000  1.0
  C  C254  1  0.20432000  0.13953000  0.35839000  1.0
  C  C255  1  0.24544000  0.18346000  0.34203000  1.0
  C  C256  1  0.26998000  0.20661000  0.33869000  1.0
  C  C257  1  0.31772000  0.24618000  0.34605000  1.0
  C  C258  1  0.98983000  0.00310000  0.50160000  1.0
  C  C259  1  0.02936000  0.99031000  0.45610000  1.0
  C  C260  1  0.97146000  0.00966000  0.52854000  1.0
  C  C261  1  0.94554000  0.02354000  0.58244000  1.0
  C  C262  1  0.93650000  0.03230000  0.61314000  1.0
  C  C263  1  0.93105000  0.05170000  0.67096000  1.0
  C  C264  1  0.79497000  0.15800000  0.70747000  1.0
  C  C265  1  0.82990000  0.11698000  0.73759000  1.0
  C  C266  1  0.77650000  0.18081000  0.69163000  1.0
  C  C267  1  0.74412000  0.22562000  0.66418000  1.0
  C  C268  1  0.72867000  0.25232000  0.65150000  1.0
  C  C269  1  0.70581000  0.30667000  0.63327000  1.0
  C  C270  1  0.52068000  0.30931000  0.41381000  1.0
  C  C271  1  0.47262000  0.29480000  0.37755000  1.0
  C  C272  1  0.54022000  0.31688000  0.43972000  1.0
  C  C273  1  0.56635000  0.33184000  0.49325000  1.0
  C  C274  1  0.57705000  0.34021000  0.52345000  1.0
  C  C275  1  0.59440000  0.35653000  0.57988000  1.0
  C  C276  1  0.74246000  0.63701000  0.43035000  1.0
  C  C277  1  0.76832000  0.67798000  0.46843000  1.0
  C  C278  1  0.73365000  0.61803000  0.40454000  1.0
  C  C279  1  0.72695000  0.58672000  0.35227000  1.0
  C  C280  1  0.73007000  0.57200000  0.32285000  1.0
  C  C281  1  0.74899000  0.54357000  0.27194000  1.0
  C  C282  1  0.09727000  0.07535000  0.33182000  1.0
  C  C283  1  0.09722000  0.02158000  0.36240000  1.0
  C  C284  1  0.09267000  0.10092000  0.31070000  1.0
  C  C285  1  0.07810000  0.14033000  0.26552000  1.0
  C  C286  1  0.06772000  0.15724000  0.23866000  1.0
  C  C287  1  0.04717000  0.18072000  0.18560000  1.0
  C  C288  1  0.87090000  0.85372000  0.61767000  1.0
  C  C289  1  0.84478000  0.80095000  0.59895000  1.0
  C  C290  1  0.88148000  0.88280000  0.63014000  1.0
  C  C291  1  0.89233000  0.93571000  0.65971000  1.0
  C  C292  1  0.89171000  0.96241000  0.67945000  1.0
  C  C293  1  0.88024000  0.00457000  0.72251000  1.0
  C  C294  1  0.64491000  0.24272000  0.87190000  1.0
  C  C295  1  0.62148000  0.21970000  0.92416000  1.0
  C  C296  1  0.65504000  0.25596000  0.84287000  1.0
  C  C297  1  0.66531000  0.28284000  0.78833000  1.0
  C  C298  1  0.66446000  0.29826000  0.75866000  1.0
  C  C299  1  0.64819000  0.32865000  0.70747000  1.0
  C  C300  1  0.34853000  0.42066000  0.40680000  1.0
  C  C301  1  0.36204000  0.36440000  0.38502000  1.0
  C  C302  1  0.34120000  0.45087000  0.41944000  1.0
  C  C303  1  0.32906000  0.50485000  0.44696000  1.0
  C  C304  1  0.32328000  0.53277000  0.46464000  1.0
  C  C305  1  0.31430000  0.57785000  0.50580000  1.0
  C  C306  1  0.31398000  0.73159000  0.70953000  1.0
  C  C307  1  0.32066000  0.70989000  0.65254000  1.0
  C  C308  1  0.30938000  0.74529000  0.73948000  1.0
  C  C309  1  0.29982000  0.77328000  0.79324000  1.0
  C  C310  1  0.29402000  0.78972000  0.82157000  1.0
  C  C311  1  0.28302000  0.82166000  0.87283000  1.0
  C  C312  1  0.98362000  0.44679000  0.92459000  1.0
  C  C313  1  0.99483000  0.50448000  0.90427000  1.0
  C  C314  1  0.98328000  0.41578000  0.93784000  1.0
  C  C315  1  0.98968000  0.36158000  0.96733000  1.0
  C  C316  1  0.99627000  0.33431000  0.98601000  1.0
  C  C317  1  0.01420000  0.29199000  0.02760000  1.0
  C  C318  1  0.53947000  0.05149000  0.09766000  1.0
  C  C319  1  0.57214000  0.08611000  0.05809000  1.0
  C  C320  1  0.52589000  0.02968000  0.11917000  1.0
  C  C321  1  0.50977000  0.98509000  0.15879000  1.0
  C  C322  1  0.50805000  0.95948000  0.18015000  1.0
  C  C323  1  0.51832000  0.91450000  0.22114000  1.0
  N  N324  1  0.46517000  0.77345000  0.36852000  1.0
  N  N325  1  0.46788000  0.79085000  0.34387000  1.0
  N  N326  1  0.47634000  0.74741000  0.31484000  1.0
  N  N327  1  0.47316000  0.72997000  0.33932000  1.0
  N  N328  1  0.43845000  0.69801000  0.38498000  1.0
  N  N329  1  0.42314000  0.68325000  0.40666000  1.0
  N  N330  1  0.44216000  0.71773000  0.44226000  1.0
  N  N331  1  0.45699000  0.73284000  0.42048000  1.0
  N  N332  1  0.41079000  0.68217000  0.48840000  1.0
  N  N333  1  0.38925000  0.67837000  0.50948000  1.0
  N  N334  1  0.35244000  0.67021000  0.47201000  1.0
  N  N335  1  0.37408000  0.67344000  0.45089000  1.0
  N  N336  1  0.14828000  0.15179000  0.04410000  1.0
  N  N337  1  0.12566000  0.16947000  0.05445000  1.0
  N  N338  1  0.11516000  0.13335000  0.09204000  1.0
  N  N339  1  0.13769000  0.11585000  0.08183000  1.0
  N  N340  1  0.17711000  0.07363000  0.05503000  1.0
  N  N341  1  0.19312000  0.05218000  0.04090000  1.0
  N  N342  1  0.20711000  0.08762000  0.00375000  1.0
  N  N343  1  0.19096000  0.10907000  0.01784000  1.0
  N  N344  1  0.23856000  0.04121000  0.97179000  1.0
  N  N345  1  0.24959000  0.01914000  0.95442000  1.0
  N  N346  1  0.23043000  0.98244000  0.98798000  1.0
  N  N347  1  0.21945000  0.00460000  0.00547000  1.0
  N  N348  1  0.98730000  0.63862000  0.74072000  1.0
  N  N349  1  0.98243000  0.63379000  0.77010000  1.0
  N  N350  1  0.96101000  0.58627000  0.75916000  1.0
  N  N351  1  0.96604000  0.59097000  0.72985000  1.0
  N  N352  1  0.96060000  0.60684000  0.66861000  1.0
  N  N353  1  0.94974000  0.61661000  0.64218000  1.0
  N  N354  1  0.96758000  0.66569000  0.65280000  1.0
  N  N355  1  0.97844000  0.65592000  0.67928000  1.0
  N  N356  1  0.93223000  0.68890000  0.60373000  1.0
  N  N357  1  0.90927000  0.70091000  0.58770000  1.0
  N  N358  1  0.88824000  0.65241000  0.58102000  1.0
  N  N359  1  0.91126000  0.64036000  0.59684000  1.0
  N  N360  1  0.73719000  0.39195000  0.13035000  1.0
  N  N361  1  0.73026000  0.41976000  0.14020000  1.0
  N  N362  1  0.69816000  0.39837000  0.17701000  1.0
  N  N363  1  0.70541000  0.37059000  0.16746000  1.0
  N  N364  1  0.71339000  0.31223000  0.14201000  1.0
  N  N365  1  0.70807000  0.28706000  0.12611000  1.0
  N  N366  1  0.72930000  0.31040000  0.08335000  1.0
  N  N367  1  0.73484000  0.33548000  0.09931000  1.0
  N  N368  1  0.69652000  0.26853000  0.04754000  1.0
  N  N369  1  0.67775000  0.25110000  0.03131000  1.0
  N  N370  1  0.66972000  0.21950000  0.07322000  1.0
  N  N371  1  0.68820000  0.23723000  0.08962000  1.0
  N  N372  1  0.43447000  0.19291000  0.22362000  1.0
  N  N373  1  0.41870000  0.21171000  0.24134000  1.0
  N  N374  1  0.46410000  0.22587000  0.26576000  1.0
  N  N375  1  0.47993000  0.20708000  0.24802000  1.0
  N  N376  1  0.51456000  0.17875000  0.20151000  1.0
  N  N377  1  0.53046000  0.17115000  0.17695000  1.0
  N  N378  1  0.48492000  0.15665000  0.15287000  1.0
  N  N379  1  0.46901000  0.16426000  0.17744000  1.0
  N  N380  1  0.51684000  0.15385000  0.09679000  1.0
  N  N381  1  0.52936000  0.16067000  0.07008000  1.0
  N  N382  1  0.57391000  0.17737000  0.09439000  1.0
  N  N383  1  0.56152000  0.17043000  0.12105000  1.0
  N  N384  1  0.14081000  0.89354000  0.52417000  1.0
  N  N385  1  0.13740000  0.92333000  0.51926000  1.0
  N  N386  1  0.15941000  0.91803000  0.47144000  1.0
  N  N387  1  0.16270000  0.88821000  0.47627000  1.0
  N  N388  1  0.17359000  0.82509000  0.48826000  1.0
  N  N389  1  0.18362000  0.79729000  0.49537000  1.0
  N  N390  1  0.16810000  0.80457000  0.54537000  1.0
  N  N391  1  0.15793000  0.83230000  0.53823000  1.0
  N  N392  1  0.20255000  0.75226000  0.56274000  1.0
  N  N393  1  0.22242000  0.73071000  0.57097000  1.0
  N  N394  1  0.23142000  0.71929000  0.52030000  1.0
  N  N395  1  0.21169000  0.74096000  0.51202000  1.0
  N  N396  1  0.00307000  0.21093000  0.98043000  1.0
  N  N397  1  0.01555000  0.20740000  0.00770000  1.0
  N  N398  1  0.96657000  0.20094000  0.02844000  1.0
  N  N399  1  0.95411000  0.20404000  0.00118000  1.0
  N  N400  1  0.93725000  0.18105000  0.94347000  1.0
  N  N401  1  0.93039000  0.16964000  0.91648000  1.0
  N  N402  1  0.96730000  0.20153000  0.89434000  1.0
  N  N403  1  0.97458000  0.21252000  0.92143000  1.0
  N  N404  1  0.94421000  0.17785000  0.83631000  1.0
  N  N405  1  0.94613000  0.16229000  0.81061000  1.0
  N  N406  1  0.94556000  0.11651000  0.83772000  1.0
  N  N407  1  0.94309000  0.13202000  0.86339000  1.0
  N  N408  1  0.66216000  0.49420000  0.56315000  1.0
  N  N409  1  0.66765000  0.46712000  0.57563000  1.0
  N  N410  1  0.67208000  0.48991000  0.62302000  1.0
  N  N411  1  0.66609000  0.51696000  0.61064000  1.0
  N  N412  1  0.65998000  0.57544000  0.58177000  1.0
  N  N413  1  0.67093000  0.60220000  0.57233000  1.0
  N  N414  1  0.69381000  0.57849000  0.53087000  1.0
  N  N415  1  0.68241000  0.55180000  0.54002000  1.0
  N  N416  1  0.73775000  0.62725000  0.53353000  1.0
  N  N417  1  0.75896000  0.64845000  0.53916000  1.0
  N  N418  1  0.72147000  0.67914000  0.56112000  1.0
  N  N419  1  0.70033000  0.65780000  0.55591000  1.0
  N  N420  1  0.60420000  0.47182000  0.27771000  1.0
  N  N421  1  0.62549000  0.48470000  0.26019000  1.0
  N  N422  1  0.65968000  0.44543000  0.27199000  1.0
  N  N423  1  0.63822000  0.43233000  0.28929000  1.0
  N  N424  1  0.58649000  0.39783000  0.31130000  1.0
  N  N425  1  0.56164000  0.38160000  0.31875000  1.0
  N  N426  1  0.53208000  0.42598000  0.31833000  1.0
  N  N427  1  0.55686000  0.44217000  0.31067000  1.0
  N  N428  1  0.50658000  0.34697000  0.31530000  1.0
  N  N429  1  0.48102000  0.33198000  0.30788000  1.0
  N  N430  1  0.45204000  0.37562000  0.31712000  1.0
  N  N431  1  0.47763000  0.39072000  0.32437000  1.0
  N  N432  1  0.36113000  0.89472000  0.28511000  1.0
  N  N433  1  0.38410000  0.87991000  0.27201000  1.0
  N  N434  1  0.41854000  0.90031000  0.30721000  1.0
  N  N435  1  0.39548000  0.91516000  0.32037000  1.0
  N  N436  1  0.34438000  0.94155000  0.35167000  1.0
  N  N437  1  0.32028000  0.95061000  0.36785000  1.0
  N  N438  1  0.28715000  0.92687000  0.33349000  1.0
  N  N439  1  0.31118000  0.91794000  0.31729000  1.0
  N  N440  1  0.23639000  0.94069000  0.37041000  1.0
  N  N441  1  0.21202000  0.94831000  0.38684000  1.0
  N  N442  1  0.24344000  0.97816000  0.41790000  1.0
  N  N443  1  0.26787000  0.97042000  0.40154000  1.0
  N  N444  1  0.15308000  0.90719000  0.84884000  1.0
  N  N445  1  0.18266000  0.90765000  0.85667000  1.0
  N  N446  1  0.17027000  0.93437000  0.90046000  1.0
  N  N447  1  0.14066000  0.93369000  0.89281000  1.0
  N  N448  1  0.08015000  0.94354000  0.87045000  1.0
  N  N449  1  0.05602000  0.95701000  0.85758000  1.0
  N  N450  1  0.07379000  0.94220000  0.81002000  1.0
  N  N451  1  0.09771000  0.92847000  0.82290000  1.0
  N  N452  1  0.03414000  0.98649000  0.78376000  1.0
  N  N453  1  0.01534000  0.00689000  0.77137000  1.0
  N  N454  1  0.98599000  0.00745000  0.81563000  1.0
  N  N455  1  0.00507000  0.98732000  0.82819000  1.0
  N  N456  1  0.74732000  0.42867000  0.74974000  1.0
  N  N457  1  0.72689000  0.42152000  0.72832000  1.0
  N  N458  1  0.76481000  0.39373000  0.70320000  1.0
  N  N459  1  0.78508000  0.40078000  0.72449000  1.0
  N  N460  1  0.83104000  0.42482000  0.76190000  1.0
  N  N461  1  0.85334000  0.43839000  0.77752000  1.0
  N  N462  1  0.81629000  0.46276000  0.80704000  1.0
  N  N463  1  0.79398000  0.44933000  0.79129000  1.0
  N  N464  1  0.86229000  0.49641000  0.83642000  1.0
  N  N465  1  0.88231000  0.51699000  0.84627000  1.0
  N  N466  1  0.91984000  0.49783000  0.81372000  1.0
  N  N467  1  0.89968000  0.47712000  0.80377000  1.0
  N  N468  1  0.56284000  0.79274000  0.38682000  1.0
  N  N469  1  0.54784000  0.80148000  0.36194000  1.0
  N  N470  1  0.54372000  0.85066000  0.38147000  1.0
  N  N471  1  0.55866000  0.84200000  0.40622000  1.0
  N  N472  1  0.60714000  0.83022000  0.44608000  1.0
  N  N473  1  0.63193000  0.82560000  0.46307000  1.0
  N  N474  1  0.62827000  0.77327000  0.45398000  1.0
  N  N475  1  0.60365000  0.77795000  0.43659000  1.0
  N  N476  1  0.68107000  0.76536000  0.49386000  1.0
  N  N477  1  0.70959000  0.76065000  0.50386000  1.0
  N  N478  1  0.72307000  0.81051000  0.49046000  1.0
  N  N479  1  0.69444000  0.81539000  0.48096000  1.0
  N  N480  1  0.38614000  0.97012000  0.94306000  1.0
  N  N481  1  0.36053000  0.95426000  0.93777000  1.0
  N  N482  1  0.37305000  0.95223000  0.88644000  1.0
  N  N483  1  0.39879000  0.96775000  0.89177000  1.0
  N  N484  1  0.45313000  0.00218000  0.90320000  1.0
  N  N485  1  0.47537000  0.02283000  0.90648000  1.0
  N  N486  1  0.45423000  0.03747000  0.95279000  1.0
  N  N487  1  0.43217000  0.01660000  0.94965000  1.0
  N  N488  1  0.49936000  0.08480000  0.95699000  1.0
  N  N489  1  0.52340000  0.10270000  0.96290000  1.0
  N  N490  1  0.55166000  0.07816000  0.92526000  1.0
  N  N491  1  0.52754000  0.06049000  0.91913000  1.0
  N  N492  1  0.22030000  0.65289000  0.67810000  1.0
  N  N493  1  0.24633000  0.64894000  0.66274000  1.0
  N  N494  1  0.21808000  0.63364000  0.62061000  1.0
  N  N495  1  0.19199000  0.63723000  0.63608000  1.0
  N  N496  1  0.13964000  0.62814000  0.67573000  1.0
  N  N497  1  0.11681000  0.62209000  0.69509000  1.0
  N  N498  1  0.14355000  0.64806000  0.73293000  1.0
  N  N499  1  0.16632000  0.65399000  0.71369000  1.0
  N  N500  1  0.10149000  0.62927000  0.77659000  1.0
  N  N501  1  0.08386000  0.61828000  0.79858000  1.0
  N  N502  1  0.05323000  0.59307000  0.76314000  1.0
  N  N503  1  0.07116000  0.60399000  0.74095000  1.0
  N  N504  1  0.80711000  0.35874000  0.22956000  1.0
  N  N505  1  0.79406000  0.38553000  0.23467000  1.0
  N  N506  1  0.78202000  0.39005000  0.18342000  1.0
  N  N507  1  0.79516000  0.36317000  0.17826000  1.0
  N  N508  1  0.83577000  0.31420000  0.16591000  1.0
  N  N509  1  0.86163000  0.30009000  0.15814000  1.0
  N  N510  1  0.88022000  0.30560000  0.20741000  1.0
  N  N511  1  0.85424000  0.31929000  0.21526000  1.0
  N  N512  1  0.94031000  0.29992000  0.18217000  1.0
  N  N513  1  0.96828000  0.29549000  0.17086000  1.0
  N  N514  1  0.94694000  0.26559000  0.13246000  1.0
  N  N515  1  0.91894000  0.27045000  0.14347000  1.0
  N  N516  1  0.26272000  0.25288000  0.27431000  1.0
  N  N517  1  0.28835000  0.26684000  0.28350000  1.0
  N  N518  1  0.31067000  0.25790000  0.23632000  1.0
  N  N519  1  0.28525000  0.24379000  0.22725000  1.0
  N  N520  1  0.23052000  0.21841000  0.20538000  1.0
  N  N521  1  0.20362000  0.21297000  0.19210000  1.0
  N  N522  1  0.17823000  0.22738000  0.23633000  1.0
  N  N523  1  0.20514000  0.23277000  0.24964000  1.0
  N  N524  1  0.12425000  0.23550000  0.20327000  1.0
  N  N525  1  0.10163000  0.24668000  0.18646000  1.0
  N  N526  1  0.12471000  0.22708000  0.14302000  1.0
  N  N527  1  0.14757000  0.21607000  0.15987000  1.0
  N  N528  1  0.91465000  0.82130000  0.53171000  1.0
  N  N529  1  0.88560000  0.81304000  0.52684000  1.0
  N  N530  1  0.90141000  0.76308000  0.51789000  1.0
  N  N531  1  0.93057000  0.77143000  0.52229000  1.0
  N  N532  1  0.98984000  0.79651000  0.50801000  1.0
  N  N533  1  0.01606000  0.80952000  0.49909000  1.0
  N  N534  1  0.00338000  0.85352000  0.52591000  1.0
  N  N535  1  0.97702000  0.84063000  0.53455000  1.0
  N  N536  1  0.05644000  0.88338000  0.50224000  1.0
  N  N537  1  0.07432000  0.90127000  0.48530000  1.0
  N  N538  1  0.07709000  0.86319000  0.44864000  1.0
  N  N539  1  0.05947000  0.84517000  0.46572000  1.0
  N  N540  1  0.71742000  0.17663000  0.92801000  1.0
  N  N541  1  0.68953000  0.16691000  0.93596000  1.0
  N  N542  1  0.70670000  0.15923000  0.98533000  1.0
  N  N543  1  0.73474000  0.16853000  0.97731000  1.0
  N  N544  1  0.79377000  0.15875000  0.95187000  1.0
  N  N545  1  0.81944000  0.14989000  0.93811000  1.0
  N  N546  1  0.80478000  0.17662000  0.89472000  1.0
  N  N547  1  0.77891000  0.18514000  0.90836000  1.0
  N  N548  1  0.85602000  0.15123000  0.86326000  1.0
  N  N549  1  0.86975000  0.13253000  0.84386000  1.0
  N  N550  1  0.86825000  0.09348000  0.87985000  1.0
  N  N551  1  0.85497000  0.11229000  0.89940000  1.0
  N  N552  1  0.43862000  0.59888000  0.59961000  1.0
  N  N553  1  0.41008000  0.60845000  0.59395000  1.0
  N  N554  1  0.39304000  0.58528000  0.63858000  1.0
  N  N555  1  0.42156000  0.57610000  0.64442000  1.0
  N  N556  1  0.48224000  0.55731000  0.65782000  1.0
  N  N557  1  0.50811000  0.54183000  0.66220000  1.0
  N  N558  1  0.52157000  0.54930000  0.61158000  1.0
  N  N559  1  0.49571000  0.56505000  0.60724000  1.0
  N  N560  1  0.57024000  0.50504000  0.61965000  1.0
  N  N561  1  0.58931000  0.48148000  0.62318000  1.0
  N  N562  1  0.57712000  0.47954000  0.67454000  1.0
  N  N563  1  0.55819000  0.50302000  0.67106000  1.0
  N  N564  1  0.63287000  0.77733000  0.23257000  1.0
  N  N565  1  0.61527000  0.80158000  0.23778000  1.0
  N  N566  1  0.57413000  0.76938000  0.25020000  1.0
  N  N567  1  0.59185000  0.74523000  0.24557000  1.0
  N  N568  1  0.63733000  0.69753000  0.25099000  1.0
  N  N569  1  0.65290000  0.67201000  0.24599000  1.0
  N  N570  1  0.67536000  0.69419000  0.20317000  1.0
  N  N571  1  0.66019000  0.71996000  0.20849000  1.0
  N  N572  1  0.68844000  0.63200000  0.18496000  1.0
  N  N573  1  0.69575000  0.60348000  0.17783000  1.0
  N  N574  1  0.69847000  0.59089000  0.22915000  1.0
  N  N575  1  0.69067000  0.61929000  0.23627000  1.0
  N  N576  1  0.46539000  0.85361000  0.12036000  1.0
  N  N577  1  0.47539000  0.84190000  0.14635000  1.0
  N  N578  1  0.45795000  0.88502000  0.17189000  1.0
  N  N579  1  0.44757000  0.89660000  0.14592000  1.0
  N  N580  1  0.41143000  0.91086000  0.09275000  1.0
  N  N581  1  0.39414000  0.91592000  0.06833000  1.0
  N  N582  1  0.42470000  0.88229000  0.04073000  1.0
  N  N583  1  0.44178000  0.87705000  0.06514000  1.0
  N  N584  1  0.38382000  0.88490000  0.99175000  1.0
  N  N585  1  0.36149000  0.87850000  0.97221000  1.0
  N  N586  1  0.32710000  0.90747000  0.00053000  1.0
  N  N587  1  0.34948000  0.91385000  0.02020000  1.0
  N  N588  1  0.14316000  0.82720000  0.90321000  1.0
  N  N589  1  0.16698000  0.84593000  0.90781000  1.0
  N  N590  1  0.16044000  0.84048000  0.95993000  1.0
  N  N591  1  0.13679000  0.82183000  0.95537000  1.0
  N  N592  1  0.10198000  0.76888000  0.94644000  1.0
  N  N593  1  0.08693000  0.74274000  0.94253000  1.0
  N  N594  1  0.08123000  0.75410000  0.89119000  1.0
  N  N595  1  0.09667000  0.78014000  0.89504000  1.0
  N  N596  1  0.04492000  0.69894000  0.88546000  1.0
  N  N597  1  0.03406000  0.67101000  0.88029000  1.0
  N  N598  1  0.05825000  0.65323000  0.92408000  1.0
  N  N599  1  0.06875000  0.68126000  0.92948000  1.0
  N  N600  1  0.81255000  0.53624000  0.10058000  1.0
  N  N601  1  0.79771000  0.52796000  0.12569000  1.0
  N  N602  1  0.84428000  0.51262000  0.14717000  1.0
  N  N603  1  0.85907000  0.52062000  0.12197000  1.0
  N  N604  1  0.88920000  0.53288000  0.06504000  1.0
  N  N605  1  0.90376000  0.54134000  0.03980000  1.0
  N  N606  1  0.86033000  0.56872000  0.02473000  1.0
  N  N607  1  0.84570000  0.56004000  0.04977000  1.0
  N  N608  1  0.89255000  0.59159000  0.97401000  1.0
  N  N609  1  0.90516000  0.59965000  0.94779000  1.0
  N  N610  1  0.94358000  0.56312000  0.95449000  1.0
  N  N611  1  0.93103000  0.55517000  0.98096000  1.0
  N  N612  1  0.18665000  0.08608000  0.36258000  1.0
  N  N613  1  0.17202000  0.06398000  0.37766000  1.0
  N  N614  1  0.15279000  0.09992000  0.41153000  1.0
  N  N615  1  0.16706000  0.12203000  0.39626000  1.0
  N  N616  1  0.19936000  0.16918000  0.36548000  1.0
  N  N617  1  0.21944000  0.19067000  0.35739000  1.0
  N  N618  1  0.25017000  0.15386000  0.33436000  1.0
  N  N619  1  0.22991000  0.13233000  0.34227000  1.0
  N  N620  1  0.29897000  0.19875000  0.33020000  1.0
  N  N621  1  0.32243000  0.21814000  0.33394000  1.0
  N  N622  1  0.28855000  0.25432000  0.35325000  1.0
  N  N623  1  0.26518000  0.23508000  0.34947000  1.0
  N  N624  1  0.00812000  0.02521000  0.48969000  1.0
  N  N625  1  0.02774000  0.01888000  0.46755000  1.0
  N  N626  1  0.01061000  0.96829000  0.46753000  1.0
  N  N627  1  0.99129000  0.97452000  0.49004000  1.0
  N  N628  1  0.96400000  0.98725000  0.54854000  1.0
  N  N629  1  0.95139000  0.99408000  0.57514000  1.0
  N  N630  1  0.95226000  0.04575000  0.56205000  1.0
  N  N631  1  0.96510000  0.03898000  0.53568000  1.0
  N  N632  1  0.93235000  0.06222000  0.61930000  1.0
  N  N633  1  0.92983000  0.07172000  0.64762000  1.0
  N  N634  1  0.93441000  0.02157000  0.66494000  1.0
  N  N635  1  0.93703000  0.01200000  0.63644000  1.0
  N  N636  1  0.82484000  0.15371000  0.69973000  1.0
  N  N637  1  0.84202000  0.13355000  0.71453000  1.0
  N  N638  1  0.80000000  0.12122000  0.74529000  1.0
  N  N639  1  0.78286000  0.14150000  0.73058000  1.0
  N  N640  1  0.74826000  0.18870000  0.70204000  1.0
  N  N641  1  0.73239000  0.21084000  0.68862000  1.0
  N  N642  1  0.77214000  0.21737000  0.65355000  1.0
  N  N643  1  0.78804000  0.19536000  0.66703000  1.0
  N  N644  1  0.74157000  0.26754000  0.62797000  1.0
  N  N645  1  0.73036000  0.29424000  0.61904000  1.0
  N  N646  1  0.69234000  0.29104000  0.65627000  1.0
  N  N647  1  0.70355000  0.26428000  0.66522000  1.0
  N  N648  1  0.50530000  0.33144000  0.39852000  1.0
  N  N649  1  0.48156000  0.32430000  0.38078000  1.0
  N  N650  1  0.48900000  0.27273000  0.39170000  1.0
  N  N651  1  0.51262000  0.27981000  0.40936000  1.0
  N  N652  1  0.54494000  0.29539000  0.46133000  1.0
  N  N653  1  0.55764000  0.30273000  0.48764000  1.0
  N  N654  1  0.56245000  0.35329000  0.47138000  1.0
  N  N655  1  0.54931000  0.34600000  0.44514000  1.0
  N  N656  1  0.59516000  0.36505000  0.52774000  1.0
  N  N657  1  0.60394000  0.37289000  0.55549000  1.0
  N  N658  1  0.57613000  0.33183000  0.57559000  1.0
  N  N659  1  0.56778000  0.32371000  0.54783000  1.0
  N  N660  1  0.73215000  0.66604000  0.43133000  1.0
  N  N661  1  0.74483000  0.68607000  0.44996000  1.0
  N  N662  1  0.77800000  0.64858000  0.46846000  1.0
  N  N663  1  0.76521000  0.62838000  0.44970000  1.0
  N  N664  1  0.74112000  0.58805000  0.40325000  1.0
  N  N665  1  0.73762000  0.57262000  0.37758000  1.0
  N  N666  1  0.71907000  0.61651000  0.35375000  1.0
  N  N667  1  0.72208000  0.63176000  0.37948000  1.0
  N  N668  1  0.74142000  0.58829000  0.29921000  1.0
  N  N669  1  0.75115000  0.57428000  0.27438000  1.0
  N  N670  1  0.73646000  0.52740000  0.29512000  1.0
  N  N671  1  0.72733000  0.54133000  0.32024000  1.0
  N  N672  1  0.11976000  0.05446000  0.32703000  1.0
  N  N673  1  0.11965000  0.02798000  0.34196000  1.0
  N  N674  1  0.07530000  0.04281000  0.36769000  1.0
  N  N675  1  0.07544000  0.06923000  0.35289000  1.0
  N  N676  1  0.06546000  0.11601000  0.31085000  1.0
  N  N677  1  0.05828000  0.13523000  0.28866000  1.0
  N  N678  1  0.10577000  0.12598000  0.26578000  1.0
  N  N679  1  0.11287000  0.10650000  0.28790000  1.0
  N  N680  1  0.08791000  0.16636000  0.21700000  1.0
  N  N681  1  0.07779000  0.17800000  0.19097000  1.0
  N  N682  1  0.02705000  0.17176000  0.20732000  1.0
  N  N683  1  0.03714000  0.16054000  0.23346000  1.0
  N  N684  1  0.85451000  0.85278000  0.59156000  1.0
  N  N685  1  0.84187000  0.82676000  0.58222000  1.0
  N  N686  1  0.86133000  0.80188000  0.62491000  1.0
  N  N687  1  0.87419000  0.82778000  0.63408000  1.0
  N  N688  1  0.89928000  0.88321000  0.65533000  1.0
  N  N689  1  0.90466000  0.90921000  0.66984000  1.0
  N  N690  1  0.87531000  0.93542000  0.63399000  1.0
  N  N691  1  0.87010000  0.90946000  0.61937000  1.0
  N  N692  1  0.86978000  0.98387000  0.67513000  1.0
  N  N693  1  0.86398000  0.00438000  0.69639000  1.0
  N  N694  1  0.90302000  0.98387000  0.72645000  1.0
  N  N695  1  0.90861000  0.96307000  0.70528000  1.0
  N  N696  1  0.63366000  0.26147000  0.89347000  1.0
  N  N697  1  0.62208000  0.25019000  0.91895000  1.0
  N  N698  1  0.63315000  0.20074000  0.90282000  1.0
  N  N699  1  0.64443000  0.21208000  0.87699000  1.0
  N  N700  1  0.65595000  0.23896000  0.81730000  1.0
  N  N701  1  0.66082000  0.25220000  0.79053000  1.0
  N  N702  1  0.66523000  0.29963000  0.81402000  1.0
  N  N703  1  0.66013000  0.28646000  0.84071000  1.0
  N  N704  1  0.66785000  0.32903000  0.75664000  1.0
  N  N705  1  0.65985000  0.34396000  0.73153000  1.0
  N  N706  1  0.64613000  0.29779000  0.70914000  1.0
  N  N707  1  0.65435000  0.28285000  0.73407000  1.0
  N  N708  1  0.33939000  0.39514000  0.42176000  1.0
  N  N709  1  0.34627000  0.36760000  0.41126000  1.0
  N  N710  1  0.37096000  0.38990000  0.36976000  1.0
  N  N711  1  0.36452000  0.41756000  0.38057000  1.0
  N  N712  1  0.35998000  0.47539000  0.41515000  1.0
  N  N713  1  0.35415000  0.50185000  0.42887000  1.0
  N  N714  1  0.31015000  0.48045000  0.45076000  1.0
  N  N715  1  0.31619000  0.45399000  0.43746000  1.0
  N  N716  1  0.29571000  0.53613000  0.47852000  1.0
  N  N717  1  0.29140000  0.55806000  0.49872000  1.0
  N  N718  1  0.34180000  0.57504000  0.49143000  1.0
  N  N719  1  0.34612000  0.55307000  0.47099000  1.0
  N  N720  1  0.29967000  0.70534000  0.70104000  1.0
  N  N721  1  0.30295000  0.69466000  0.67298000  1.0
  N  N722  1  0.33512000  0.73583000  0.66129000  1.0
  N  N723  1  0.33187000  0.74643000  0.68915000  1.0
  N  N724  1  0.32163000  0.77317000  0.74511000  1.0
  N  N725  1  0.31690000  0.78690000  0.77139000  1.0
  N  N726  1  0.28768000  0.74520000  0.78784000  1.0
  N  N727  1  0.29232000  0.73145000  0.76135000  1.0
  N  N728  1  0.28023000  0.77607000  0.84565000  1.0
  N  N729  1  0.27490000  0.79176000  0.87090000  1.0
  N  N730  1  0.29675000  0.83517000  0.84873000  1.0
  N  N731  1  0.30224000  0.81949000  0.82367000  1.0
  N  N732  1  0.99439000  0.45170000  0.89617000  1.0
  N  N733  1  0.99988000  0.47995000  0.88625000  1.0
  N  N734  1  0.98335000  0.49952000  0.93240000  1.0
  N  N735  1  0.97743000  0.47133000  0.94220000  1.0
  N  N736  1  0.96770000  0.41013000  0.96385000  1.0
  N  N737  1  0.97069000  0.38353000  0.97817000  1.0
  N  N738  1  0.00506000  0.36707000  0.94113000  1.0
  N  N739  1  0.00178000  0.39358000  0.92659000  1.0
  N  N740  1  0.02231000  0.31771000  0.98178000  1.0
  N  N741  1  0.03126000  0.29717000  0.00233000  1.0
  N  N742  1  0.98768000  0.30785000  0.03111000  1.0
  N  N743  1  0.97882000  0.32841000  0.01075000  1.0
  N  N744  1  0.55230000  0.07837000  0.10661000  1.0
  N  N745  1  0.56830000  0.09553000  0.08708000  1.0
  N  N746  1  0.55878000  0.05964000  0.04926000  1.0
  N  N747  1  0.54278000  0.04273000  0.06856000  1.0
  N  N748  1  0.51854000  0.00129000  0.10935000  1.0
  N  N749  1  0.51083000  0.97939000  0.12875000  1.0
  N  N750  1  0.51615000  0.01376000  0.16866000  1.0
  N  N751  1  0.52414000  0.03570000  0.14920000  1.0
  N  N752  1  0.50278000  0.96429000  0.20996000  1.0
  N  N753  1  0.50781000  0.94217000  0.23006000  1.0
  N  N754  1  0.52296000  0.90960000  0.19127000  1.0
  N  N755  1  0.51747000  0.93148000  0.17112000  1.0
  O  O756  1  0.47870000  0.80498000  0.26674000  1.0
  O  O757  1  0.43352000  0.78609000  0.28052000  1.0
  O  O758  1  0.46034000  0.81582000  0.20418000  1.0
  O  O759  1  0.48942000  0.85493000  0.22452000  1.0
  O  O760  1  0.42746000  0.84061000  0.25216000  1.0
  O  O761  1  0.46531000  0.86462000  0.28163000  1.0
  O  O762  1  0.52445000  0.88192000  0.26677000  1.0
  O  O763  1  0.56549000  0.90391000  0.24600000  1.0
  O  O764  1  0.55519000  0.86498000  0.32188000  1.0
  O  O765  1  0.51386000  0.83303000  0.30908000  1.0
  O  O766  1  0.58006000  0.84761000  0.26741000  1.0
  O  O767  1  0.53654000  0.82075000  0.25145000  1.0
  O  O768  1  0.24954000  0.92226000  0.88637000  1.0
  O  O769  1  0.22502000  0.96407000  0.87122000  1.0
  O  O770  1  0.31040000  0.94717000  0.87745000  1.0
  O  O771  1  0.30527000  0.92164000  0.92283000  1.0
  O  O772  1  0.26709000  0.97574000  0.91476000  1.0
  O  O773  1  0.24890000  0.93651000  0.94664000  1.0
  O  O774  1  0.27838000  0.88107000  0.95946000  1.0
  O  O775  1  0.30846000  0.84118000  0.96885000  1.0
  O  O776  1  0.22199000  0.84693000  0.96334000  1.0
  O  O777  1  0.22233000  0.88197000  0.92369000  1.0
  O  O778  1  0.26753000  0.82578000  0.92488000  1.0
  O  O779  1  0.27967000  0.86953000  0.89754000  1.0
  O  O780  1  0.96101000  0.60838000  0.83616000  1.0
  O  O781  1  0.92062000  0.61356000  0.80603000  1.0
  O  O782  1  0.92627000  0.61361000  0.89196000  1.0
  O  O783  1  0.96307000  0.57570000  0.89367000  1.0
  O  O784  1  0.91297000  0.56978000  0.84927000  1.0
  O  O785  1  0.96021000  0.54577000  0.83865000  1.0
  O  O786  1  0.01387000  0.54685000  0.87213000  1.0
  O  O787  1  0.04024000  0.53336000  0.91207000  1.0
  O  O788  1  0.06229000  0.58019000  0.84187000  1.0
  O  O789  1  0.01377000  0.57960000  0.81840000  1.0
  O  O790  1  0.04799000  0.59358000  0.90137000  1.0
  O  O791  1  0.01022000  0.61302000  0.87067000  1.0
  O  O792  1  0.71018000  0.47941000  0.17212000  1.0
  O  O793  1  0.66591000  0.45594000  0.16240000  1.0
  O  O794  1  0.68499000  0.54032000  0.17083000  1.0
  O  O795  1  0.72049000  0.53234000  0.20912000  1.0
  O  O796  1  0.66056000  0.49578000  0.20924000  1.0
  O  O797  1  0.70383000  0.47600000  0.23403000  1.0
  O  O798  1  0.76180000  0.49987000  0.24085000  1.0
  O  O799  1  0.79889000  0.53151000  0.25380000  1.0
  O  O800  1  0.79973000  0.44803000  0.23089000  1.0
  O  O801  1  0.75261000  0.44792000  0.20483000  1.0
  O  O802  1  0.81417000  0.50176000  0.20153000  1.0
  O  O803  1  0.76696000  0.50408000  0.17681000  1.0
  O  O804  1  0.40269000  0.32213000  0.29312000  1.0
  O  O805  1  0.43455000  0.33824000  0.25785000  1.0
  O  O806  1  0.35834000  0.29507000  0.25087000  1.0
  O  O807  1  0.34851000  0.28755000  0.30222000  1.0
  O  O808  1  0.41785000  0.27865000  0.25247000  1.0
  O  O809  1  0.40621000  0.25834000  0.30052000  1.0
  O  O810  1  0.37214000  0.26427000  0.35336000  1.0
  O  O811  1  0.33926000  0.26398000  0.39199000  1.0
  O  O812  1  0.42565000  0.27324000  0.39055000  1.0
  O  O813  1  0.42858000  0.29858000  0.34419000  1.0
  O  O814  1  0.37645000  0.31318000  0.39572000  1.0
  O  O815  1  0.37154000  0.32815000  0.34526000  1.0
  O  O816  1  0.13488000  0.98815000  0.47026000  1.0
  O  O817  1  0.17195000  0.98297000  0.50424000  1.0
  O  O818  1  0.15299000  0.04961000  0.45166000  1.0
  O  O819  1  0.13566000  0.01963000  0.41220000  1.0
  O  O820  1  0.19187000  0.99946000  0.44761000  1.0
  O  O821  1  0.16127000  0.96411000  0.42052000  1.0
  O  O822  1  0.10625000  0.97130000  0.38862000  1.0
  O  O823  1  0.06480000  0.97740000  0.35957000  1.0
  O  O824  1  0.08939000  0.90982000  0.40785000  1.0
  O  O825  1  0.10557000  0.94098000  0.44650000  1.0
  O  O826  1  0.04972000  0.95865000  0.41686000  1.0
  O  O827  1  0.08051000  0.99692000  0.43845000  1.0
  O  O828  1  0.93897000  0.10426000  0.76195000  1.0
  O  O829  1  0.98647000  0.11765000  0.77629000  1.0
  O  O830  1  0.95657000  0.08568000  0.70268000  1.0
  O  O831  1  0.92142000  0.05262000  0.72502000  1.0
  O  O832  1  0.98488000  0.05979000  0.75318000  1.0
  O  O833  1  0.94369000  0.04580000  0.78440000  1.0
  O  O834  1  0.88329000  0.03464000  0.77021000  1.0
  O  O835  1  0.83801000  0.01659000  0.75512000  1.0
  O  O836  1  0.86008000  0.05853000  0.82706000  1.0
  O  O837  1  0.89914000  0.08738000  0.80511000  1.0
  O  O838  1  0.83413000  0.07575000  0.77243000  1.0
  O  O839  1  0.87819000  0.09309000  0.74675000  1.0
  O  O840  1  0.68195000  0.41010000  0.61618000  1.0
  O  O841  1  0.72197000  0.44038000  0.61096000  1.0
  O  O842  1  0.71590000  0.35366000  0.60902000  1.0
  O  O843  1  0.67637000  0.35125000  0.64429000  1.0
  O  O844  1  0.73187000  0.39520000  0.65244000  1.0
  O  O845  1  0.68573000  0.40324000  0.67888000  1.0
  O  O846  1  0.62976000  0.37349000  0.67799000  1.0
  O  O847  1  0.59792000  0.33550000  0.68761000  1.0
  O  O848  1  0.58302000  0.41643000  0.65915000  1.0
  O  O849  1  0.63440000  0.43114000  0.65068000  1.0
  O  O850  1  0.58545000  0.35886000  0.63300000  1.0
  O  O851  1  0.62968000  0.38049000  0.61316000  1.0
  O  O852  1  0.78722000  0.71606000  0.56926000  1.0
  O  O853  1  0.77763000  0.67882000  0.60099000  1.0
  O  O854  1  0.82568000  0.75172000  0.61090000  1.0
  O  O855  1  0.82123000  0.76950000  0.56134000  1.0
  O  O856  1  0.83821000  0.69282000  0.59671000  1.0
  O  O857  1  0.84903000  0.71312000  0.54871000  1.0
  O  O858  1  0.83390000  0.75218000  0.50396000  1.0
  O  O859  1  0.84418000  0.79382000  0.47803000  1.0
  O  O860  1  0.78842000  0.72725000  0.46469000  1.0
  O  O861  1  0.79886000  0.69976000  0.50937000  1.0
  O  O862  1  0.78291000  0.78596000  0.48578000  1.0
  O  O863  1  0.77106000  0.75339000  0.52515000  1.0
  O  O864  1  0.01219000  0.19822000  0.08583000  1.0
  O  O865  1  0.00983000  0.15618000  0.05867000  1.0
  O  O866  1  0.01643000  0.16763000  0.14380000  1.0
  O  O867  1  0.04957000  0.20863000  0.13866000  1.0
  O  O868  1  0.05834000  0.15658000  0.09793000  1.0
  O  O869  1  0.07530000  0.20490000  0.08156000  1.0
  O  O870  1  0.07037000  0.26008000  0.11160000  1.0
  O  O871  1  0.08371000  0.29397000  0.14628000  1.0
  O  O872  1  0.03551000  0.30234000  0.07468000  1.0
  O  O873  1  0.03406000  0.25090000  0.05998000  1.0
  O  O874  1  0.02294000  0.29578000  0.13523000  1.0
  O  O875  1  0.00613000  0.24930000  0.11637000  1.0
  O  O876  1  0.57323000  0.18539000  0.01471000  1.0
  O  O877  1  0.56161000  0.22286000  0.04634000  1.0
  O  O878  1  0.58670000  0.22657000  0.96418000  1.0
  O  O879  1  0.61768000  0.18355000  0.96580000  1.0
  O  O880  1  0.61674000  0.23218000  0.01827000  1.0
  O  O881  1  0.63536000  0.18268000  0.02696000  1.0
  O  O882  1  0.64068000  0.13265000  0.99200000  1.0
  O  O883  1  0.66506000  0.10661000  0.95721000  1.0
  O  O884  1  0.60404000  0.08350000  0.01553000  1.0
  O  O885  1  0.59651000  0.13176000  0.03714000  1.0
  O  O886  1  0.60367000  0.09743000  0.95517000  1.0
  O  O887  1  0.57614000  0.13586000  0.97851000  1.0
  O  O888  1  0.33675000  0.67890000  0.55180000  1.0
  O  O889  1  0.33038000  0.71429000  0.51735000  1.0
  O  O890  1  0.33666000  0.72005000  0.60267000  1.0
  O  O891  1  0.30939000  0.67514000  0.61136000  1.0
  O  O892  1  0.28888000  0.72213000  0.56214000  1.0
  O  O893  1  0.27258000  0.67152000  0.55850000  1.0
  O  O894  1  0.28238000  0.62186000  0.59423000  1.0
  O  O895  1  0.27628000  0.59449000  0.63542000  1.0
  O  O896  1  0.30973000  0.57439000  0.55816000  1.0
  O  O897  1  0.30983000  0.62369000  0.53691000  1.0
  O  O898  1  0.33389000  0.58827000  0.61456000  1.0
  O  O899  1  0.34830000  0.63098000  0.58707000  1.0
