# generated using pymatgen
data_Cu2H28C40I(N7O2)4
_symmetry_space_group_name_H-M   'P 1'
_cell_length_a   12.63325000
_cell_length_b   24.74180000
_cell_length_c   48.97820000
_cell_angle_alpha   90.00000000
_cell_angle_beta   90.41700000
_cell_angle_gamma   90.00000000
_symmetry_Int_Tables_number   1
_chemical_formula_structural   Cu2H28C40I(N7O2)4
_chemical_formula_sum   'Cu16 H224 C320 I8 N224 O64'
_cell_volume   15308.67842956
_cell_formula_units_Z   8
loop_
 _symmetry_equiv_pos_site_id
 _symmetry_equiv_pos_as_xyz
  1  'x, y, z'
loop_
 _atom_site_type_symbol
 _atom_site_label
 _atom_site_symmetry_multiplicity
 _atom_site_fract_x
 _atom_site_fract_y
 _atom_site_fract_z
 _atom_site_occupancy
  C  C0  1  0.83366000  0.00034000  0.91622000  1.0
  C  C1  1  0.69588000  0.00799000  0.94011000  1.0
  C  C2  1  0.71154000  0.06881000  0.01010000  1.0
  C  C3  1  0.81226000  0.13684000  0.01344000  1.0
  C  C4  1  0.94862000  0.17440000  0.94675000  1.0
  C  C5  1  0.87476000  0.13318000  0.91394000  1.0
  C  C6  1  0.16280000  0.76994000  0.97482000  1.0
  C  C7  1  0.00114000  0.75095000  0.98032000  1.0
  C  C8  1  0.22410000  0.94299000  0.98192000  1.0
  C  C9  1  0.22714000  0.89204000  0.94728000  1.0
  C  C10  1  0.85472000  0.83746000  0.93837000  1.0
  C  C11  1  0.97458000  0.88663000  0.92177000  1.0
  C  C12  1  0.91538000  0.85540000  0.03278000  1.0
  C  C13  1  0.07026000  0.88652000  0.03659000  1.0
  C  C14  1  0.07290000  0.07121000  0.00022000  1.0
  C  C15  1  0.11032000  0.06469000  0.95824000  1.0
  C  C16  1  0.96706000  0.90241000  0.70697000  1.0
  C  C17  1  0.03720000  0.82610000  0.71447000  1.0
  C  C18  1  0.69888000  0.75360000  0.67385000  1.0
  C  C19  1  0.79818000  0.81767000  0.66195000  1.0
  C  C20  1  0.71816000  0.80239000  0.77918000  1.0
  C  C21  1  0.87548000  0.83111000  0.77782000  1.0
  C  C22  1  0.81432000  0.66224000  0.79614000  1.0
  C  C23  1  0.85276000  0.59000000  0.77542000  1.0
  C  C24  1  0.44364000  0.66625000  0.73979000  1.0
  C  C25  1  0.52856000  0.73684000  0.72965000  1.0
  C  C26  1  0.58982000  0.56542000  0.79627000  1.0
  C  C27  1  0.54052000  0.64647000  0.79976000  1.0
  C  C28  1  0.60796000  0.57345000  0.69835000  1.0
  C  C29  1  0.77370000  0.58132000  0.70198000  1.0
  C  C30  1  0.67220000  0.91189000  0.74461000  1.0
  C  C31  1  0.63916000  0.90193000  0.70257000  1.0
  C  C32  1  0.25692000  0.21282000  0.74609000  1.0
  C  C33  1  0.29736000  0.24741000  0.70815000  1.0
  C  C34  1  0.21356000  0.38172000  0.68602000  1.0
  C  C35  1  0.04796000  0.37363000  0.69024000  1.0
  C  C36  1  0.28972000  0.40574000  0.77114000  1.0
  C  C37  1  0.33640000  0.32546000  0.77900000  1.0
  C  C38  1  0.10056000  0.04013000  0.73048000  1.0
  C  C39  1  0.19168000  0.08791000  0.70371000  1.0
  C  C40  1  0.79662000  0.08372000  0.72653000  1.0
  C  C41  1  0.78572000  0.13941000  0.69383000  1.0
  C  C42  1  0.07560000  0.13364000  0.77837000  1.0
  C  C43  1  0.92550000  0.17108000  0.77853000  1.0
  C  C44  1  0.08772000  0.21959000  0.67156000  1.0
  C  C45  1  0.03980000  0.14080000  0.66119000  1.0
  C  C46  1  0.07096000  0.32008000  0.79375000  1.0
  C  C47  1  0.03256000  0.39233000  0.77289000  1.0
  C  C48  1  0.20850000  0.05781000  0.45257000  1.0
  C  C49  1  0.19576000  0.06548000  0.49533000  1.0
  C  C50  1  0.27710000  0.19362000  0.51119000  1.0
  C  C51  1  0.35718000  0.13568000  0.53523000  1.0
  C  C52  1  0.42850000  0.19619000  0.43280000  1.0
  C  C53  1  0.43256000  0.11497000  0.41972000  1.0
  C  C54  1  0.23196000  0.92777000  0.49982000  1.0
  C  C55  1  0.29498000  0.88117000  0.53220000  1.0
  C  C56  1  0.66996000  0.91388000  0.46532000  1.0
  C  C57  1  0.65594000  0.95517000  0.50290000  1.0
  C  C58  1  0.34474000  0.82363000  0.44726000  1.0
  C  C59  1  0.44426000  0.88106000  0.42842000  1.0
  C  C60  1  0.55264000  0.79177000  0.50714000  1.0
  C  C61  1  0.55848000  0.85381000  0.53672000  1.0
  C  C62  1  0.60628000  0.11805000  0.50995000  1.0
  C  C63  1  0.63202000  0.09843000  0.46853000  1.0
  C  C64  1  0.48304000  0.81544000  0.20805000  1.0
  C  C65  1  0.47380000  0.79807000  0.25023000  1.0
  C  C66  1  0.06254000  0.82438000  0.19785000  1.0
  C  C67  1  0.20318000  0.82972000  0.17502000  1.0
  C  C68  1  0.16734000  0.81148000  0.28767000  1.0
  C  C69  1  0.29200000  0.86814000  0.28617000  1.0
  C  C70  1  0.41812000  0.64551000  0.27286000  1.0
  C  C71  1  0.43400000  0.63590000  0.23019000  1.0
  C  C72  1  0.01554000  0.66760000  0.21493000  1.0
  C  C73  1  0.00662000  0.67748000  0.25778000  1.0
  C  C74  1  0.11580000  0.54405000  0.28720000  1.0
  C  C75  1  0.18192000  0.61222000  0.30662000  1.0
  C  C76  1  0.22412000  0.51694000  0.21407000  1.0
  C  C77  1  0.21900000  0.58125000  0.18551000  1.0
  C  C78  1  0.34406000  0.93738000  0.20830000  1.0
  C  C79  1  0.18230000  0.93972000  0.21896000  1.0
  C  C80  1  0.93728000  0.29647000  0.24849000  1.0
  C  C81  1  0.90024000  0.29080000  0.20634000  1.0
  C  C82  1  0.55844000  0.39255000  0.19634000  1.0
  C  C83  1  0.70978000  0.39582000  0.17831000  1.0
  C  C84  1  0.62746000  0.39480000  0.28597000  1.0
  C  C85  1  0.71376000  0.32284000  0.29274000  1.0
  C  C86  1  0.71034000  0.06134000  0.22971000  1.0
  C  C87  1  0.80200000  0.11894000  0.20842000  1.0
  C  C88  1  0.38660000  0.10594000  0.22411000  1.0
  C  C89  1  0.38434000  0.16140000  0.19126000  1.0
  C  C90  1  0.47856000  0.20311000  0.26652000  1.0
  C  C91  1  0.60484000  0.15112000  0.27704000  1.0
  C  C92  1  0.59426000  0.12162000  0.16068000  1.0
  C  C93  1  0.66132000  0.19935000  0.15625000  1.0
  C  C94  1  0.90692000  0.44369000  0.22518000  1.0
  C  C95  1  0.75926000  0.47492000  0.23743000  1.0
  C  C96  1  0.70950000  0.63427000  0.45182000  1.0
  C  C97  1  0.65500000  0.57183000  0.47759000  1.0
  C  C98  1  0.74566000  0.58659000  0.54184000  1.0
  C  C99  1  0.89962000  0.56233000  0.55336000  1.0
  C  C100  1  0.08892000  0.62760000  0.47077000  1.0
  C  C101  1  0.01494000  0.58368000  0.43885000  1.0
  C  C102  1  0.11612000  0.30015000  0.45437000  1.0
  C  C103  1  0.98106000  0.27238000  0.47526000  1.0
  C  C104  1  0.16586000  0.43789000  0.44683000  1.0
  C  C105  1  0.17566000  0.46307000  0.48811000  1.0
  C  C106  1  0.88140000  0.43137000  0.43046000  1.0
  C  C107  1  0.82648000  0.35264000  0.43864000  1.0
  C  C108  1  0.06734000  0.34741000  0.53275000  1.0
  C  C109  1  0.92956000  0.39174000  0.54226000  1.0
  C  C110  1  0.84022000  0.71521000  0.49661000  1.0
  C  C111  1  0.94920000  0.68553000  0.52592000  1.0
  C  C112  1  0.25414000  0.51529000  0.96573000  1.0
  C  C113  1  0.29956000  0.45843000  0.99582000  1.0
  C  C114  1  0.38078000  0.62220000  0.04346000  1.0
  C  C115  1  0.36192000  0.53860000  0.04979000  1.0
  C  C116  1  0.41002000  0.66328000  0.96531000  1.0
  C  C117  1  0.43970000  0.60280000  0.93568000  1.0
  C  C118  1  0.55738000  0.24973000  0.00473000  1.0
  C  C119  1  0.49332000  0.24675000  0.96475000  1.0
  C  C120  1  0.75268000  0.30199000  0.95578000  1.0
  C  C121  1  0.80692000  0.36502000  0.98158000  1.0
  C  C122  1  0.38858000  0.37187000  0.93604000  1.0
  C  C123  1  0.53670000  0.35641000  0.91805000  1.0
  C  C124  1  0.47928000  0.35915000  0.03543000  1.0
  C  C125  1  0.61540000  0.40809000  0.03347000  1.0
  C  C126  1  0.65120000  0.55890000  0.02595000  1.0
  C  C127  1  0.67642000  0.57399000  0.98399000  1.0
  C  C128  1  0.92288000  0.88637000  0.87287000  1.0
  C  C129  1  0.87354000  0.85569000  0.85232000  1.0
  C  C130  1  0.89184000  0.86737000  0.82475000  1.0
  C  C131  1  0.95656000  0.91145000  0.81779000  1.0
  C  C132  1  0.00476000  0.94316000  0.83797000  1.0
  C  C133  1  0.98826000  0.93002000  0.86540000  1.0
  C  C134  1  0.89632000  0.20253000  0.87747000  1.0
  C  C135  1  0.92716000  0.17276000  0.85439000  1.0
  C  C136  1  0.91562000  0.19481000  0.82805000  1.0
  C  C137  1  0.87060000  0.24643000  0.82508000  1.0
  C  C138  1  0.84076000  0.27686000  0.84800000  1.0
  C  C139  1  0.85496000  0.25464000  0.87415000  1.0
  C  C140  1  0.70490000  0.82162000  0.56493000  1.0
  C  C141  1  0.69878000  0.79874000  0.59099000  1.0
  C  C142  1  0.77104000  0.81422000  0.61154000  1.0
  C  C143  1  0.85092000  0.85172000  0.60530000  1.0
  C  C144  1  0.85696000  0.87508000  0.57935000  1.0
  C  C145  1  0.78448000  0.85927000  0.55915000  1.0
  C  C146  1  0.13494000  0.13129000  0.61686000  1.0
  C  C147  1  0.18048000  0.15844000  0.59444000  1.0
  C  C148  1  0.23256000  0.12921000  0.57386000  1.0
  C  C149  1  0.23692000  0.07248000  0.57578000  1.0
  C  C150  1  0.19312000  0.04502000  0.59793000  1.0
  C  C151  1  0.14122000  0.07459000  0.61811000  1.0
  C  C152  1  0.42310000  0.85442000  0.38017000  1.0
  C  C153  1  0.34246000  0.85015000  0.36045000  1.0
  C  C154  1  0.36594000  0.85667000  0.33269000  1.0
  C  C155  1  0.47192000  0.86524000  0.32494000  1.0
  C  C156  1  0.55348000  0.86767000  0.34439000  1.0
  C  C157  1  0.52802000  0.86298000  0.37202000  1.0
  C  C158  1  0.56024000  0.13373000  0.32603000  1.0
  C  C159  1  0.50922000  0.15397000  0.34947000  1.0
  C  C160  1  0.51574000  0.12592000  0.37443000  1.0
  C  C161  1  0.57592000  0.07820000  0.37589000  1.0
  C  C162  1  0.62792000  0.05784000  0.35299000  1.0
  C  C163  1  0.61858000  0.08540000  0.32812000  1.0
  C  C164  1  0.13446000  0.87425000  0.13376000  1.0
  C  C165  1  0.06922000  0.86540000  0.11088000  1.0
  C  C166  1  0.08682000  0.89455000  0.08668000  1.0
  C  C167  1  0.16600000  0.93454000  0.08617000  1.0
  C  C168  1  0.23110000  0.94395000  0.10887000  1.0
  C  C169  1  0.21438000  0.91376000  0.13256000  1.0
  C  C170  1  0.70438000  0.19364000  0.10569000  1.0
  C  C171  1  0.70472000  0.15867000  0.08294000  1.0
  C  C172  1  0.74554000  0.17502000  0.05764000  1.0
  C  C173  1  0.78552000  0.22763000  0.05503000  1.0
  C  C174  1  0.78460000  0.26360000  0.07729000  1.0
  C  C175  1  0.74438000  0.24620000  0.10257000  1.0
  C  C176  1  0.70452000  0.31784000  0.34360000  1.0
  C  C177  1  0.72288000  0.35178000  0.36625000  1.0
  C  C178  1  0.75560000  0.33032000  0.39169000  1.0
  C  C179  1  0.76386000  0.27391000  0.39442000  1.0
  C  C180  1  0.74652000  0.23976000  0.37199000  1.0
  C  C181  1  0.71766000  0.26191000  0.34667000  1.0
  C  C182  1  0.16638000  0.58788000  0.40436000  1.0
  C  C183  1  0.11866000  0.58656000  0.37787000  1.0
  C  C184  1  0.18316000  0.57936000  0.35431000  1.0
  C  C185  1  0.29200000  0.57125000  0.35766000  1.0
  C  C186  1  0.33958000  0.57144000  0.38342000  1.0
  C  C187  1  0.27668000  0.58057000  0.40639000  1.0
  C  C188  1  0.63690000  0.42980000  0.08336000  1.0
  C  C189  1  0.60608000  0.41462000  0.10990000  1.0
  C  C190  1  0.66312000  0.43269000  0.13282000  1.0
  C  C191  1  0.74872000  0.46800000  0.12932000  1.0
  C  C192  1  0.77872000  0.48504000  0.10319000  1.0
  C  C193  1  0.72302000  0.46535000  0.08036000  1.0
  C  C194  1  0.26446000  0.53883000  0.09393000  1.0
  C  C195  1  0.27332000  0.55420000  0.12187000  1.0
  C  C196  1  0.21538000  0.52576000  0.14212000  1.0
  C  C197  1  0.14728000  0.48396000  0.13394000  1.0
  C  C198  1  0.13524000  0.46962000  0.10647000  1.0
  C  C199  1  0.19406000  0.49709000  0.08676000  1.0
  C  C200  1  0.47908000  0.33627000  0.87061000  1.0
  C  C201  1  0.42772000  0.35972000  0.84783000  1.0
  C  C202  1  0.44032000  0.33708000  0.82159000  1.0
  C  C203  1  0.50444000  0.29112000  0.81852000  1.0
  C  C204  1  0.55352000  0.26661000  0.84105000  1.0
  C  C205  1  0.54152000  0.28987000  0.86691000  1.0
  C  C206  1  0.44718000  0.64400000  0.84451000  1.0
  C  C207  1  0.46318000  0.63094000  0.87254000  1.0
  C  C208  1  0.40398000  0.65794000  0.89305000  1.0
  C  C209  1  0.32746000  0.69605000  0.88502000  1.0
  C  C210  1  0.30814000  0.70778000  0.85747000  1.0
  C  C211  1  0.36886000  0.68199000  0.83752000  1.0
  C  C212  1  0.94556000  0.38990000  0.59371000  1.0
  C  C213  1  0.01982000  0.38564000  0.61530000  1.0
  C  C214  1  0.99048000  0.39573000  0.64250000  1.0
  C  C215  1  0.88552000  0.41049000  0.64797000  1.0
  C  C216  1  0.81080000  0.41603000  0.62674000  1.0
  C  C217  1  0.84164000  0.40579000  0.59970000  1.0
  C  C218  1  0.87096000  0.55556000  0.60483000  1.0
  C  C219  1  0.79664000  0.56178000  0.62634000  1.0
  C  C220  1  0.82758000  0.55650000  0.65411000  1.0
  C  C221  1  0.93372000  0.54430000  0.66004000  1.0
  C  C222  1  0.00814000  0.53719000  0.63915000  1.0
  C  C223  1  0.97602000  0.54269000  0.61175000  1.0
  C  C224  1  0.57174000  0.95172000  0.91208000  1.0
  C  C225  1  0.49144000  0.94948000  0.93167000  1.0
  C  C226  1  0.39474000  0.92429000  0.92595000  1.0
  C  C227  1  0.37816000  0.90102000  0.90008000  1.0
  C  C228  1  0.45786000  0.90241000  0.88021000  1.0
  C  C229  1  0.55456000  0.92772000  0.88647000  1.0
  C  C230  1  0.37832000  0.79132000  0.71053000  1.0
  C  C231  1  0.27400000  0.80631000  0.71643000  1.0
  C  C232  1  0.22294000  0.84696000  0.70134000  1.0
  C  C233  1  0.27718000  0.87254000  0.68005000  1.0
  C  C234  1  0.37996000  0.85620000  0.67299000  1.0
  C  C235  1  0.43086000  0.81651000  0.68885000  1.0
  C  C236  1  0.59450000  0.13580000  0.68482000  1.0
  C  C237  1  0.51006000  0.14899000  0.70180000  1.0
  C  C238  1  0.42412000  0.17851000  0.69164000  1.0
  C  C239  1  0.41894000  0.19105000  0.66370000  1.0
  C  C240  1  0.50156000  0.17634000  0.64614000  1.0
  C  C241  1  0.59012000  0.14938000  0.65705000  1.0
  C  C242  1  0.00964000  0.03739000  0.50161000  1.0
  C  C243  1  0.93146000  0.00286000  0.49157000  1.0
  C  C244  1  0.83680000  0.99546000  0.50574000  1.0
  C  C245  1  0.82232000  0.02198000  0.53085000  1.0
  C  C246  1  0.90004000  0.05693000  0.54127000  1.0
  C  C247  1  0.99334000  0.06465000  0.52644000  1.0
  C  C248  1  0.82874000  0.72061000  0.26088000  1.0
  C  C249  1  0.74958000  0.74719000  0.24598000  1.0
  C  C250  1  0.65764000  0.76554000  0.25870000  1.0
  C  C251  1  0.64738000  0.75909000  0.28710000  1.0
  C  C252  1  0.72674000  0.73349000  0.30253000  1.0
  C  C253  1  0.81700000  0.71410000  0.28922000  1.0
  C  C254  1  0.19468000  0.16978000  0.18356000  1.0
  C  C255  1  0.12278000  0.19324000  0.20140000  1.0
  C  C256  1  0.04642000  0.22956000  0.19179000  1.0
  C  C257  1  0.03698000  0.23881000  0.16352000  1.0
  C  C258  1  0.10742000  0.21436000  0.14519000  1.0
  C  C259  1  0.18786000  0.18080000  0.15556000  1.0
  C  C260  1  0.31356000  0.53381000  0.48353000  1.0
  C  C261  1  0.41050000  0.54325000  0.47112000  1.0
  C  C262  1  0.46668000  0.59027000  0.47668000  1.0
  C  C263  1  0.42798000  0.62777000  0.49553000  1.0
  C  C264  1  0.33304000  0.61766000  0.50937000  1.0
  C  C265  1  0.27648000  0.57006000  0.50339000  1.0
  C  C266  1  0.15492000  0.39118000  0.98912000  1.0
  C  C267  1  0.04758000  0.38765000  0.98260000  1.0
  C  C268  1  0.99494000  0.33853000  0.98488000  1.0
  C  C269  1  0.04752000  0.29301000  0.99499000  1.0
  C  C270  1  0.15502000  0.29566000  0.00193000  1.0
  C  C271  1  0.20876000  0.34495000  0.99846000  1.0
  C  C272  1  0.86836000  0.58840000  0.98413000  1.0
  C  C273  1  0.92050000  0.63699000  0.98939000  1.0
  C  C274  1  0.00898000  0.65164000  0.97402000  1.0
  C  C275  1  0.04696000  0.61632000  0.95392000  1.0
  C  C276  1  0.99432000  0.56741000  0.94834000  1.0
  C  C277  1  0.90494000  0.55379000  0.96368000  1.0
  C  C278  1  0.30044000  0.08872000  0.96076000  1.0
  C  C279  1  0.36210000  0.12674000  0.97463000  1.0
  C  C280  1  0.44920000  0.15012000  0.96214000  1.0
  C  C281  1  0.48052000  0.13277000  0.93621000  1.0
  C  C282  1  0.42324000  0.09206000  0.92254000  1.0
  C  C283  1  0.33172000  0.07092000  0.93480000  1.0
  C  C284  1  0.50530000  0.97485000  0.69672000  1.0
  C  C285  1  0.41034000  0.99115000  0.70873000  1.0
  C  C286  1  0.33952000  0.02442000  0.69450000  1.0
  C  C287  1  0.36472000  0.04152000  0.66796000  1.0
  C  C288  1  0.45916000  0.02472000  0.65550000  1.0
  C  C289  1  0.52916000  0.99142000  0.67015000  1.0
  C  C290  1  0.00284000  0.77155000  0.54722000  1.0
  C  C291  1  0.05222000  0.81604000  0.53560000  1.0
  C  C292  1  0.12920000  0.84484000  0.55002000  1.0
  C  C293  1  0.15308000  0.83059000  0.57708000  1.0
  C  C294  1  0.09970000  0.78734000  0.58966000  1.0
  C  C295  1  0.02592000  0.75717000  0.57427000  1.0
  C  C296  1  0.82344000  0.11833000  0.46581000  1.0
  C  C297  1  0.88652000  0.16232000  0.47336000  1.0
  C  C298  1  0.97176000  0.17858000  0.45714000  1.0
  C  C299  1  0.99900000  0.14709000  0.43439000  1.0
  C  C300  1  0.93926000  0.10116000  0.42722000  1.0
  C  C301  1  0.85040000  0.08754000  0.44289000  1.0
  C  C302  1  0.95256000  0.06184000  0.19497000  1.0
  C  C303  1  0.03254000  0.03090000  0.20692000  1.0
  C  C304  1  0.12490000  0.01916000  0.19245000  1.0
  C  C305  1  0.13604000  0.03820000  0.16563000  1.0
  C  C306  1  0.05424000  0.06761000  0.15294000  1.0
  C  C307  1  0.96348000  0.08012000  0.16801000  1.0
  C  C308  1  0.77496000  0.56841000  0.22169000  1.0
  C  C309  1  0.69230000  0.58927000  0.23735000  1.0
  C  C310  1  0.62786000  0.63034000  0.22716000  1.0
  C  C311  1  0.65120000  0.65411000  0.20197000  1.0
  C  C312  1  0.73954000  0.63685000  0.18695000  1.0
  C  C313  1  0.80014000  0.59310000  0.19680000  1.0
  C  C314  1  0.02714000  0.45460000  0.81165000  1.0
  C  C315  1  0.96312000  0.49572000  0.80109000  1.0
  C  C316  1  0.97698000  0.54951000  0.80949000  1.0
  C  C317  1  0.05582000  0.56165000  0.82885000  1.0
  C  C318  1  0.12170000  0.52077000  0.83945000  1.0
  C  C319  1  0.10560000  0.46712000  0.83101000  1.0
  Cu  Cu320  1  0.03156000  0.87086000  0.97849000  1.0
  Cu  Cu321  1  0.87722000  0.06594000  0.96634000  1.0
  Cu  Cu322  1  0.66712000  0.63854000  0.74853000  1.0
  Cu  Cu323  1  0.80202000  0.82096000  0.72148000  1.0
  Cu  Cu324  1  0.99574000  0.14832000  0.71986000  1.0
  Cu  Cu325  1  0.16064000  0.32394000  0.73824000  1.0
  Cu  Cu326  1  0.45412000  0.89692000  0.48795000  1.0
  Cu  Cu327  1  0.40068000  0.11205000  0.47827000  1.0
  Cu  Cu328  1  0.20696000  0.62208000  0.24459000  1.0
  Cu  Cu329  1  0.26382000  0.83203000  0.23172000  1.0
  Cu  Cu330  1  0.59402000  0.16520000  0.21594000  1.0
  Cu  Cu331  1  0.74080000  0.35784000  0.23470000  1.0
  Cu  Cu332  1  0.99198000  0.39152000  0.48052000  1.0
  Cu  Cu333  1  0.87440000  0.59446000  0.49102000  1.0
  Cu  Cu334  1  0.57078000  0.35787000  0.97795000  1.0
  Cu  Cu335  1  0.44826000  0.55530000  0.99288000  1.0
  H  H336  1  0.67700000  0.03103000  0.00352000  1.0
  H  H337  1  0.87690000  0.16477000  0.01025000  1.0
  H  H338  1  0.23598000  0.79193000  0.97249000  1.0
  H  H339  1  0.91628000  0.75439000  0.98250000  1.0
  H  H340  1  0.19946000  0.96317000  0.00034000  1.0
  H  H341  1  0.20628000  0.86138000  0.93246000  1.0
  H  H342  1  0.98146000  0.18370000  0.96659000  1.0
  H  H343  1  0.83246000  0.10389000  0.90172000  1.0
  H  H344  1  0.80846000  0.81363000  0.95240000  1.0
  H  H345  1  0.04520000  0.91068000  0.91977000  1.0
  H  H346  1  0.84288000  0.83929000  0.02421000  1.0
  H  H347  1  0.14998000  0.89889000  0.03191000  1.0
  H  H348  1  0.02898000  0.07475000  0.01899000  1.0
  H  H349  1  0.10238000  0.06440000  0.93623000  1.0
  H  H350  1  0.91372000  0.00474000  0.90903000  1.0
  H  H351  1  0.64202000  0.02011000  0.95596000  1.0
  H  H352  1  0.65398000  0.72499000  0.68559000  1.0
  H  H353  1  0.84770000  0.85321000  0.66268000  1.0
  H  H354  1  0.77374000  0.69862000  0.80228000  1.0
  H  H355  1  0.84948000  0.55651000  0.76126000  1.0
  H  H356  1  0.42428000  0.62547000  0.74590000  1.0
  H  H357  1  0.59056000  0.76583000  0.72594000  1.0
  H  H358  1  0.63974000  0.78981000  0.77304000  1.0
  H  H359  1  0.94964000  0.84663000  0.77026000  1.0
  H  H360  1  0.62742000  0.52887000  0.78912000  1.0
  H  H361  1  0.52994000  0.68925000  0.79600000  1.0
  H  H362  1  0.52412000  0.57754000  0.70206000  1.0
  H  H363  1  0.85090000  0.59416000  0.70914000  1.0
  H  H364  1  0.70724000  0.90836000  0.76467000  1.0
  H  H365  1  0.64034000  0.88796000  0.68171000  1.0
  H  H366  1  0.90920000  0.93424000  0.70443000  1.0
  H  H367  1  0.04754000  0.78349000  0.71865000  1.0
  H  H368  1  0.29780000  0.37891000  0.68976000  1.0
  H  H369  1  0.97120000  0.36191000  0.69787000  1.0
  H  H370  1  0.03838000  0.02642000  0.74386000  1.0
  H  H371  1  0.21942000  0.12061000  0.69106000  1.0
  H  H372  1  0.82622000  0.06125000  0.74390000  1.0
  H  H373  1  0.80282000  0.17263000  0.68017000  1.0
  H  H374  1  0.24740000  0.44040000  0.76322000  1.0
  H  H375  1  0.33802000  0.28202000  0.77953000  1.0
  H  H376  1  0.14834000  0.11488000  0.77186000  1.0
  H  H377  1  0.85174000  0.18952000  0.77208000  1.0
  H  H378  1  0.10516000  0.25651000  0.68217000  1.0
  H  H379  1  0.01010000  0.09997000  0.66277000  1.0
  H  H380  1  0.10486000  0.28090000  0.79821000  1.0
  H  H381  1  0.03584000  0.42375000  0.75753000  1.0
  H  H382  1  0.22606000  0.20780000  0.76641000  1.0
  H  H383  1  0.30620000  0.27568000  0.69150000  1.0
  H  H384  1  0.24680000  0.21533000  0.49366000  1.0
  H  H385  1  0.40142000  0.09964000  0.54037000  1.0
  H  H386  1  0.22286000  0.94683000  0.48011000  1.0
  H  H387  1  0.34526000  0.85335000  0.54326000  1.0
  H  H388  1  0.65396000  0.88809000  0.44801000  1.0
  H  H389  1  0.62402000  0.97097000  0.52167000  1.0
  H  H390  1  0.42460000  0.23160000  0.44569000  1.0
  H  H391  1  0.43384000  0.07126000  0.42010000  1.0
  H  H392  1  0.30258000  0.80076000  0.46252000  1.0
  H  H393  1  0.49766000  0.91453000  0.42504000  1.0
  H  H394  1  0.53940000  0.77045000  0.48815000  1.0
  H  H395  1  0.55376000  0.89329000  0.54614000  1.0
  H  H396  1  0.56922000  0.12928000  0.52885000  1.0
  H  H397  1  0.61930000  0.09199000  0.44693000  1.0
  H  H398  1  0.23740000  0.06013000  0.43192000  1.0
  H  H399  1  0.21260000  0.07335000  0.51641000  1.0
  H  H400  1  0.00880000  0.82313000  0.21492000  1.0
  H  H401  1  0.28582000  0.83534000  0.17024000  1.0
  H  H402  1  0.38620000  0.64745000  0.29314000  1.0
  H  H403  1  0.41740000  0.62659000  0.20901000  1.0
  H  H404  1  0.04236000  0.65670000  0.19479000  1.0
  H  H405  1  0.02614000  0.67665000  0.27926000  1.0
  H  H406  1  0.10868000  0.78196000  0.28160000  1.0
  H  H407  1  0.35542000  0.89273000  0.27820000  1.0
  H  H408  1  0.08948000  0.51554000  0.27187000  1.0
  H  H409  1  0.22272000  0.64990000  0.31040000  1.0
  H  H410  1  0.22518000  0.49415000  0.23289000  1.0
  H  H411  1  0.21222000  0.62104000  0.17651000  1.0
  H  H412  1  0.42394000  0.92350000  0.20501000  1.0
  H  H413  1  0.10412000  0.92692000  0.22511000  1.0
  H  H414  1  0.46242000  0.82673000  0.18740000  1.0
  H  H415  1  0.44218000  0.79064000  0.27029000  1.0
  H  H416  1  0.49552000  0.38704000  0.21092000  1.0
  H  H417  1  0.79442000  0.39372000  0.17520000  1.0
  H  H418  1  0.64460000  0.04155000  0.23958000  1.0
  H  H419  1  0.82532000  0.15481000  0.19732000  1.0
  H  H420  1  0.41236000  0.08301000  0.24174000  1.0
  H  H421  1  0.40630000  0.19419000  0.17781000  1.0
  H  H422  1  0.59276000  0.42992000  0.27637000  1.0
  H  H423  1  0.76520000  0.28844000  0.28982000  1.0
  H  H424  1  0.42210000  0.22663000  0.25484000  1.0
  H  H425  1  0.67240000  0.12464000  0.27563000  1.0
  H  H426  1  0.56038000  0.08545000  0.16938000  1.0
  H  H427  1  0.69400000  0.23876000  0.16063000  1.0
  H  H428  1  0.96804000  0.41583000  0.21894000  1.0
  H  H429  1  0.67532000  0.47702000  0.24141000  1.0
  H  H430  1  0.93518000  0.30736000  0.26983000  1.0
  H  H431  1  0.86042000  0.29547000  0.18687000  1.0
  H  H432  1  0.67926000  0.60247000  0.53043000  1.0
  H  H433  1  0.98354000  0.55401000  0.55273000  1.0
  H  H434  1  0.17646000  0.32592000  0.44590000  1.0
  H  H435  1  0.90730000  0.27233000  0.48630000  1.0
  H  H436  1  0.13858000  0.41916000  0.42813000  1.0
  H  H437  1  0.15786000  0.46906000  0.50948000  1.0
  H  H438  1  0.10464000  0.64782000  0.48989000  1.0
  H  H439  1  0.95822000  0.56070000  0.42702000  1.0
  H  H440  1  0.92692000  0.46818000  0.43131000  1.0
  H  H441  1  0.81680000  0.31338000  0.44780000  1.0
  H  H442  1  0.13220000  0.32937000  0.52173000  1.0
  H  H443  1  0.86032000  0.41720000  0.54066000  1.0
  H  H444  1  0.78396000  0.71805000  0.48007000  1.0
  H  H445  1  0.00302000  0.65966000  0.53714000  1.0
  H  H446  1  0.76042000  0.66348000  0.44208000  1.0
  H  H447  1  0.65140000  0.54200000  0.49370000  1.0
  H  H448  1  0.39900000  0.66082000  0.03434000  1.0
  H  H449  1  0.36198000  0.49537000  0.04707000  1.0
  H  H450  1  0.59554000  0.26395000  0.02318000  1.0
  H  H451  1  0.46588000  0.25753000  0.94451000  1.0
  H  H452  1  0.70136000  0.27466000  0.94469000  1.0
  H  H453  1  0.80972000  0.39836000  0.99580000  1.0
  H  H454  1  0.39790000  0.68390000  0.98447000  1.0
  H  H455  1  0.45344000  0.56407000  0.92608000  1.0
  H  H456  1  0.32708000  0.37775000  0.95082000  1.0
  H  H457  1  0.61936000  0.34672000  0.91531000  1.0
  H  H458  1  0.41898000  0.33022000  0.03051000  1.0
  H  H459  1  0.68572000  0.42785000  0.02614000  1.0
  H  H460  1  0.61304000  0.55082000  0.04520000  1.0
  H  H461  1  0.66404000  0.58038000  0.96233000  1.0
  H  H462  1  0.25154000  0.55076000  0.95294000  1.0
  H  H463  1  0.34182000  0.43770000  0.01192000  1.0
  H  H464  1  0.82338000  0.82190000  0.85770000  1.0
  H  H465  1  0.96760000  0.92201000  0.79658000  1.0
  H  H466  1  0.02612000  0.95445000  0.88088000  1.0
  H  H467  1  0.96234000  0.13315000  0.85698000  1.0
  H  H468  1  0.86254000  0.26380000  0.80490000  1.0
  H  H469  1  0.83220000  0.27738000  0.89206000  1.0
  H  H470  1  0.63442000  0.77138000  0.59557000  1.0
  H  H471  1  0.90850000  0.86335000  0.62062000  1.0
  H  H472  1  0.78662000  0.87789000  0.53916000  1.0
  H  H473  1  0.17730000  0.20211000  0.59325000  1.0
  H  H474  1  0.27532000  0.04920000  0.56006000  1.0
  H  H475  1  0.11026000  0.05307000  0.63546000  1.0
  H  H476  1  0.26158000  0.84321000  0.36674000  1.0
  H  H477  1  0.49240000  0.86797000  0.30363000  1.0
  H  H478  1  0.59010000  0.86516000  0.38733000  1.0
  H  H479  1  0.46370000  0.19097000  0.34827000  1.0
  H  H480  1  0.58506000  0.05752000  0.39521000  1.0
  H  H481  1  0.65618000  0.06845000  0.31035000  1.0
  H  H482  1  0.00908000  0.83427000  0.11149000  1.0
  H  H483  1  0.17804000  0.95797000  0.06781000  1.0
  H  H484  1  0.26372000  0.92119000  0.15027000  1.0
  H  H485  1  0.67444000  0.11798000  0.08497000  1.0
  H  H486  1  0.81578000  0.24088000  0.03554000  1.0
  H  H487  1  0.74370000  0.27382000  0.11964000  1.0
  H  H488  1  0.71694000  0.39513000  0.36366000  1.0
  H  H489  1  0.79050000  0.25621000  0.41343000  1.0
  H  H490  1  0.70464000  0.23547000  0.32936000  1.0
  H  H491  1  0.03442000  0.59315000  0.37554000  1.0
  H  H492  1  0.33998000  0.56474000  0.33972000  1.0
  H  H493  1  0.31410000  0.58251000  0.42621000  1.0
  H  H494  1  0.54120000  0.38665000  0.11275000  1.0
  H  H495  1  0.79202000  0.48205000  0.14711000  1.0
  H  H496  1  0.74788000  0.47756000  0.06028000  1.0
  H  H497  1  0.32776000  0.58590000  0.12786000  1.0
  H  H498  1  0.10264000  0.46252000  0.14931000  1.0
  H  H499  1  0.18490000  0.48597000  0.06550000  1.0
  H  H500  1  0.37666000  0.39439000  0.85061000  1.0
  H  H501  1  0.51376000  0.27352000  0.79846000  1.0
  H  H502  1  0.57854000  0.27091000  0.88446000  1.0
  H  H503  1  0.52340000  0.60193000  0.87831000  1.0
  H  H504  1  0.28108000  0.71616000  0.90049000  1.0
  H  H505  1  0.35446000  0.69116000  0.81622000  1.0
  H  H506  1  0.10040000  0.37366000  0.61099000  1.0
  H  H507  1  0.86258000  0.41884000  0.66878000  1.0
  H  H508  1  0.78382000  0.40895000  0.58340000  1.0
  H  H509  1  0.71518000  0.57162000  0.62155000  1.0
  H  H510  1  0.95826000  0.53925000  0.68108000  1.0
  H  H511  1  0.03378000  0.53729000  0.59585000  1.0
  H  H512  1  0.50390000  0.96661000  0.95170000  1.0
  H  H513  1  0.30316000  0.88223000  0.89521000  1.0
  H  H514  1  0.61632000  0.92920000  0.87129000  1.0
  H  H515  1  0.23252000  0.78607000  0.73277000  1.0
  H  H516  1  0.23698000  0.90312000  0.66808000  1.0
  H  H517  1  0.50926000  0.80321000  0.68348000  1.0
  H  H518  1  0.51570000  0.14040000  0.72344000  1.0
  H  H519  1  0.35130000  0.21293000  0.65575000  1.0
  H  H520  1  0.65650000  0.13940000  0.64414000  1.0
  H  H521  1  0.94388000  0.98250000  0.47230000  1.0
  H  H522  1  0.75028000  0.01647000  0.54220000  1.0
  H  H523  1  0.05210000  0.09268000  0.53405000  1.0
  H  H524  1  0.75820000  0.75213000  0.22416000  1.0
  H  H525  1  0.57770000  0.77354000  0.29737000  1.0
  H  H526  1  0.87646000  0.69290000  0.30098000  1.0
  H  H527  1  0.13192000  0.18626000  0.22311000  1.0
  H  H528  1  0.97814000  0.26666000  0.15578000  1.0
  H  H529  1  0.24618000  0.16352000  0.14202000  1.0
  H  H530  1  0.44198000  0.51411000  0.45681000  1.0
  H  H531  1  0.47436000  0.66346000  0.50016000  1.0
  H  H532  1  0.20136000  0.56265000  0.51317000  1.0
  H  H533  1  0.00574000  0.42254000  0.97462000  1.0
  H  H534  1  0.00430000  0.25557000  0.99715000  1.0
  H  H535  1  0.29272000  0.34699000  0.00177000  1.0
  H  H536  1  0.88928000  0.66436000  0.00459000  1.0
  H  H537  1  0.11448000  0.62824000  0.94183000  1.0
  H  H538  1  0.86170000  0.51692000  0.95939000  1.0
  H  H539  1  0.33716000  0.14192000  0.99429000  1.0
  H  H540  1  0.54808000  0.15170000  0.92666000  1.0
  H  H541  1  0.28454000  0.04095000  0.92419000  1.0
  H  H542  1  0.39182000  0.97810000  0.72926000  1.0
  H  H543  1  0.31022000  0.06729000  0.65692000  1.0
  H  H544  1  0.60308000  0.97889000  0.66109000  1.0
  H  H545  1  0.03620000  0.82579000  0.51440000  1.0
  H  H546  1  0.21328000  0.85294000  0.58812000  1.0
  H  H547  1  0.98670000  0.72251000  0.58314000  1.0
  H  H548  1  0.86472000  0.18566000  0.49109000  1.0
  H  H549  1  0.06490000  0.15921000  0.42181000  1.0
  H  H550  1  0.80154000  0.05333000  0.43724000  1.0
  H  H551  1  0.02302000  0.01632000  0.22761000  1.0
  H  H552  1  0.20682000  0.02852000  0.15441000  1.0
  H  H553  1  0.89990000  0.10296000  0.15859000  1.0
  H  H554  1  0.67154000  0.56994000  0.25641000  1.0
  H  H555  1  0.60024000  0.68583000  0.19420000  1.0
  H  H556  1  0.86372000  0.57678000  0.18461000  1.0
  H  H557  1  0.90294000  0.48520000  0.78621000  1.0
  H  H558  1  0.06732000  0.60320000  0.83514000  1.0
  H  H559  1  0.15748000  0.43542000  0.83838000  1.0
  I  I560  1  0.91826000  0.96289000  0.98182000  1.0
  I  I561  1  0.80226000  0.71568000  0.73271000  1.0
  I  I562  1  0.00084000  0.25459000  0.73247000  1.0
  I  I563  1  0.43514000  0.00524000  0.48144000  1.0
  I  I564  1  0.23910000  0.72679000  0.23443000  1.0
  I  I565  1  0.63772000  0.26905000  0.21999000  1.0
  I  I566  1  0.90852000  0.48868000  0.49254000  1.0
  I  I567  1  0.54086000  0.46403000  0.97372000  1.0
  N  N568  1  0.89814000  0.12784000  0.94075000  1.0
  N  N569  1  0.95538000  0.20729000  0.92489000  1.0
  N  N570  1  0.90958000  0.18100000  0.90450000  1.0
  N  N571  1  0.06740000  0.79318000  0.97872000  1.0
  N  N572  1  0.15556000  0.71570000  0.97334000  1.0
  N  N573  1  0.05442000  0.70433000  0.97700000  1.0
  N  N574  1  0.16882000  0.90362000  0.96933000  1.0
  N  N575  1  0.31302000  0.95523000  0.96824000  1.0
  N  N576  1  0.31396000  0.92340000  0.94651000  1.0
  N  N577  1  0.94264000  0.86528000  0.94541000  1.0
  N  N578  1  0.83400000  0.84146000  0.91130000  1.0
  N  N579  1  0.90966000  0.87252000  0.90120000  1.0
  N  N580  1  0.99910000  0.87132000  0.01778000  1.0
  N  N581  1  0.93420000  0.86139000  0.05987000  1.0
  N  N582  1  0.03116000  0.88140000  0.06185000  1.0
  N  N583  1  0.02828000  0.06345000  0.97547000  1.0
  N  N584  1  0.17826000  0.07754000  0.99841000  1.0
  N  N585  1  0.20100000  0.07306000  0.97215000  1.0
  N  N586  1  0.79806000  0.02235000  0.93955000  1.0
  N  N587  1  0.75706000  0.97275000  0.90302000  1.0
  N  N588  1  0.67130000  0.97736000  0.91820000  1.0
  N  N589  1  0.79270000  0.09351000  0.99749000  1.0
  N  N590  1  0.68252000  0.09531000  0.03289000  1.0
  N  N591  1  0.74552000  0.13792000  0.03486000  1.0
  N  N592  1  0.79916000  0.81076000  0.76171000  1.0
  N  N593  1  0.74344000  0.81782000  0.80483000  1.0
  N  N594  1  0.84178000  0.83598000  0.80367000  1.0
  N  N595  1  0.79088000  0.63385000  0.77332000  1.0
  N  N596  1  0.88804000  0.63703000  0.81156000  1.0
  N  N597  1  0.91118000  0.59177000  0.79849000  1.0
  N  N598  1  0.54314000  0.68627000  0.73940000  1.0
  N  N599  1  0.37152000  0.70204000  0.73076000  1.0
  N  N600  1  0.42516000  0.74598000  0.72437000  1.0
  N  N601  1  0.59002000  0.61269000  0.78236000  1.0
  N  N602  1  0.54104000  0.56988000  0.82081000  1.0
  N  N603  1  0.51036000  0.62088000  0.82278000  1.0
  N  N604  1  0.68384000  0.58792000  0.71650000  1.0
  N  N605  1  0.64874000  0.55904000  0.67391000  1.0
  N  N606  1  0.75270000  0.56388000  0.67627000  1.0
  N  N607  1  0.69804000  0.88098000  0.72289000  1.0
  N  N608  1  0.59854000  0.94911000  0.73823000  1.0
  N  N609  1  0.57858000  0.94250000  0.71194000  1.0
  N  N610  1  0.94352000  0.85169000  0.71490000  1.0
  N  N611  1  0.07086000  0.90791000  0.70146000  1.0
  N  N612  1  0.11414000  0.86017000  0.70643000  1.0
  N  N613  1  0.76230000  0.79271000  0.68438000  1.0
  N  N614  1  0.69566000  0.75496000  0.64635000  1.0
  N  N615  1  0.75840000  0.79511000  0.63908000  1.0
  N  N616  1  0.27730000  0.35484000  0.76151000  1.0
  N  N617  1  0.35202000  0.40728000  0.79377000  1.0
  N  N618  1  0.38124000  0.35673000  0.79831000  1.0
  N  N619  1  0.10190000  0.08902000  0.71828000  1.0
  N  N620  1  0.18642000  0.01044000  0.72399000  1.0
  N  N621  1  0.24224000  0.04065000  0.70707000  1.0
  N  N622  1  0.85388000  0.12012000  0.71247000  1.0
  N  N623  1  0.69574000  0.08165000  0.71739000  1.0
  N  N624  1  0.69058000  0.11603000  0.69671000  1.0
  N  N625  1  0.99914000  0.15164000  0.76119000  1.0
  N  N626  1  0.05292000  0.14385000  0.80474000  1.0
  N  N627  1  0.95916000  0.16756000  0.80468000  1.0
  N  N628  1  0.03884000  0.17564000  0.68230000  1.0
  N  N629  1  0.12140000  0.21086000  0.64590000  1.0
  N  N630  1  0.09228000  0.16116000  0.63959000  1.0
  N  N631  1  0.06518000  0.34157000  0.76845000  1.0
  N  N632  1  0.04756000  0.35685000  0.81307000  1.0
  N  N633  1  0.02294000  0.40174000  0.79979000  1.0
  N  N634  1  0.23900000  0.25672000  0.73041000  1.0
  N  N635  1  0.32418000  0.17802000  0.73413000  1.0
  N  N636  1  0.34750000  0.19971000  0.71023000  1.0
  N  N637  1  0.13936000  0.36730000  0.70429000  1.0
  N  N638  1  0.17034000  0.39525000  0.66167000  1.0
  N  N639  1  0.06668000  0.39029000  0.66448000  1.0
  N  N640  1  0.41122000  0.14533000  0.44166000  1.0
  N  N641  1  0.46160000  0.19683000  0.40655000  1.0
  N  N642  1  0.46406000  0.14565000  0.39862000  1.0
  N  N643  1  0.32434000  0.90824000  0.50965000  1.0
  N  N644  1  0.14976000  0.91316000  0.51534000  1.0
  N  N645  1  0.18974000  0.88437000  0.53568000  1.0
  N  N646  1  0.59946000  0.92568000  0.48495000  1.0
  N  N647  1  0.76456000  0.93674000  0.47033000  1.0
  N  N648  1  0.75500000  0.96269000  0.49382000  1.0
  N  N649  1  0.41224000  0.86440000  0.45300000  1.0
  N  N650  1  0.33652000  0.81494000  0.42008000  1.0
  N  N651  1  0.39956000  0.85106000  0.40866000  1.0
  N  N652  1  0.51454000  0.84155000  0.51252000  1.0
  N  N653  1  0.61994000  0.77479000  0.52694000  1.0
  N  N654  1  0.62160000  0.81375000  0.54546000  1.0
  N  N655  1  0.55390000  0.10422000  0.48685000  1.0
  N  N656  1  0.71122000  0.12171000  0.50593000  1.0
  N  N657  1  0.72670000  0.10862000  0.48010000  1.0
  N  N658  1  0.26398000  0.07350000  0.47487000  1.0
  N  N659  1  0.11066000  0.04065000  0.45916000  1.0
  N  N660  1  0.10354000  0.04630000  0.48596000  1.0
  N  N661  1  0.35612000  0.15698000  0.50998000  1.0
  N  N662  1  0.22852000  0.19287000  0.53573000  1.0
  N  N663  1  0.27870000  0.15611000  0.55061000  1.0
  N  N664  1  0.22278000  0.84222000  0.27006000  1.0
  N  N665  1  0.20540000  0.81623000  0.31342000  1.0
  N  N666  1  0.28430000  0.85140000  0.31218000  1.0
  N  N667  1  0.36020000  0.63810000  0.24984000  1.0
  N  N668  1  0.52264000  0.64719000  0.26765000  1.0
  N  N669  1  0.53130000  0.64230000  0.24089000  1.0
  N  N670  1  0.07044000  0.65852000  0.23820000  1.0
  N  N671  1  0.92294000  0.69246000  0.21993000  1.0
  N  N672  1  0.91782000  0.69818000  0.24677000  1.0
  N  N673  1  0.16780000  0.59034000  0.28152000  1.0
  N  N674  1  0.10328000  0.53672000  0.31439000  1.0
  N  N675  1  0.14300000  0.58004000  0.32657000  1.0
  N  N676  1  0.21522000  0.57105000  0.21274000  1.0
  N  N677  1  0.23058000  0.49454000  0.18907000  1.0
  N  N678  1  0.22844000  0.53476000  0.17119000  1.0
  N  N679  1  0.26898000  0.90895000  0.22150000  1.0
  N  N680  1  0.30416000  0.98299000  0.19721000  1.0
  N  N681  1  0.20312000  0.98403000  0.20413000  1.0
  N  N682  1  0.41512000  0.81545000  0.22911000  1.0
  N  N683  1  0.58014000  0.79880000  0.21594000  1.0
  N  N684  1  0.57358000  0.78821000  0.24239000  1.0
  N  N685  1  0.16860000  0.81941000  0.20025000  1.0
  N  N686  1  0.03374000  0.83958000  0.17233000  1.0
  N  N687  1  0.12262000  0.84295000  0.15827000  1.0
  N  N688  1  0.68368000  0.35678000  0.27262000  1.0
  N  N689  1  0.62506000  0.38549000  0.31313000  1.0
  N  N690  1  0.67894000  0.34030000  0.31717000  1.0
  N  N691  1  0.70826000  0.11272000  0.22057000  1.0
  N  N692  1  0.80200000  0.03657000  0.22318000  1.0
  N  N693  1  0.85804000  0.07310000  0.20981000  1.0
  N  N694  1  0.44984000  0.13882000  0.20956000  1.0
  N  N695  1  0.28506000  0.10942000  0.21553000  1.0
  N  N696  1  0.28560000  0.14322000  0.19457000  1.0
  N  N697  1  0.56182000  0.17692000  0.25549000  1.0
  N  N698  1  0.46988000  0.19333000  0.29351000  1.0
  N  N699  1  0.54890000  0.16053000  0.29996000  1.0
  N  N700  1  0.61712000  0.16657000  0.17518000  1.0
  N  N701  1  0.62098000  0.12617000  0.13436000  1.0
  N  N702  1  0.66282000  0.17474000  0.13145000  1.0
  N  N703  1  0.81246000  0.42846000  0.23537000  1.0
  N  N704  1  0.91048000  0.49750000  0.22051000  1.0
  N  N705  1  0.81800000  0.51655000  0.22862000  1.0
  N  N706  1  0.86724000  0.31368000  0.22960000  1.0
  N  N707  1  0.01020000  0.26364000  0.23745000  1.0
  N  N708  1  0.98614000  0.26012000  0.21114000  1.0
  N  N709  1  0.66164000  0.38229000  0.20169000  1.0
  N  N710  1  0.54362000  0.41079000  0.17054000  1.0
  N  N711  1  0.63902000  0.41281000  0.15961000  1.0
  N  N712  1  0.00032000  0.59930000  0.46531000  1.0
  N  N713  1  0.15580000  0.62817000  0.44954000  1.0
  N  N714  1  0.11008000  0.60088000  0.42942000  1.0
  N  N715  1  0.03678000  0.31741000  0.47045000  1.0
  N  N716  1  0.10728000  0.24703000  0.44866000  1.0
  N  N717  1  0.02252000  0.22990000  0.46184000  1.0
  N  N718  1  0.12120000  0.43026000  0.47140000  1.0
  N  N719  1  0.24488000  0.47425000  0.44824000  1.0
  N  N720  1  0.24984000  0.48981000  0.47408000  1.0
  N  N721  1  0.88288000  0.39319000  0.45018000  1.0
  N  N722  1  0.82816000  0.41535000  0.40802000  1.0
  N  N723  1  0.79398000  0.36591000  0.41305000  1.0
  N  N724  1  0.98658000  0.37425000  0.52069000  1.0
  N  N725  1  0.06194000  0.34868000  0.56015000  1.0
  N  N726  1  0.97588000  0.37651000  0.56610000  1.0
  N  N727  1  0.88950000  0.66940000  0.50463000  1.0
  N  N728  1  0.87028000  0.75793000  0.51178000  1.0
  N  N729  1  0.93690000  0.73865000  0.53029000  1.0
  N  N730  1  0.74356000  0.59646000  0.46966000  1.0
  N  N731  1  0.60290000  0.63557000  0.45034000  1.0
  N  N732  1  0.57068000  0.59588000  0.46631000  1.0
  N  N733  1  0.84158000  0.57616000  0.53095000  1.0
  N  N734  1  0.74364000  0.57911000  0.56904000  1.0
  N  N735  1  0.83976000  0.56377000  0.57643000  1.0
  N  N736  1  0.43264000  0.61037000  0.96306000  1.0
  N  N737  1  0.40134000  0.68711000  0.94065000  1.0
  N  N738  1  0.42038000  0.64937000  0.92210000  1.0
  N  N739  1  0.53038000  0.28175000  0.98345000  1.0
  N  N740  1  0.53442000  0.19745000  0.99982000  1.0
  N  N741  1  0.49650000  0.19622000  0.97461000  1.0
  N  N742  1  0.71894000  0.34548000  0.96984000  1.0
  N  N743  1  0.85700000  0.29416000  0.95897000  1.0
  N  N744  1  0.88958000  0.33372000  0.97501000  1.0
  N  N745  1  0.49202000  0.36555000  0.94249000  1.0
  N  N746  1  0.37048000  0.36628000  0.90892000  1.0
  N  N747  1  0.46384000  0.35676000  0.89785000  1.0
  N  N748  1  0.55002000  0.37866000  0.01740000  1.0
  N  N749  1  0.49898000  0.37605000  0.06109000  1.0
  N  N750  1  0.58398000  0.40701000  0.05977000  1.0
  N  N751  1  0.60000000  0.56109000  0.00168000  1.0
  N  N752  1  0.75576000  0.56881000  0.02326000  1.0
  N  N753  1  0.76980000  0.57749000  0.99690000  1.0
  N  N754  1  0.33042000  0.50532000  0.98440000  1.0
  N  N755  1  0.18056000  0.47611000  0.96520000  1.0
  N  N756  1  0.20992000  0.44069000  0.98397000  1.0
  N  N757  1  0.39540000  0.57418000  0.03082000  1.0
  N  N758  1  0.33762000  0.61639000  0.06859000  1.0
  N  N759  1  0.32616000  0.56378000  0.07243000  1.0
  N  N760  1  0.06998000  0.98865000  0.83065000  1.0
  N  N761  1  0.79684000  0.33023000  0.84473000  1.0
  N  N762  1  0.93356000  0.91652000  0.57393000  1.0
  N  N763  1  0.20594000  0.98743000  0.60061000  1.0
  N  N764  1  0.66196000  0.87371000  0.33605000  1.0
  N  N765  1  0.69106000  0.00953000  0.35507000  1.0
  N  N766  1  0.31566000  0.98298000  0.10763000  1.0
  N  N767  1  0.82444000  0.31775000  0.07424000  1.0
  N  N768  1  0.76352000  0.18271000  0.37466000  1.0
  N  N769  1  0.45206000  0.56308000  0.38610000  1.0
  N  N770  1  0.86666000  0.52145000  0.09983000  1.0
  N  N771  1  0.06424000  0.42667000  0.09868000  1.0
  N  N772  1  0.61228000  0.21715000  0.83781000  1.0
  N  N773  1  0.22674000  0.74578000  0.84977000  1.0
  N  N774  1  0.70362000  0.43174000  0.63264000  1.0
  N  N775  1  0.11658000  0.52440000  0.64579000  1.0
  N  N776  1  0.44054000  0.87846000  0.85374000  1.0
  N  N777  1  0.42978000  0.87736000  0.64887000  1.0
  N  N778  1  0.49688000  0.19006000  0.61758000  1.0
  N  N779  1  0.88314000  0.08535000  0.56652000  1.0
  N  N780  1  0.71464000  0.72613000  0.33153000  1.0
  N  N781  1  0.10000000  0.22532000  0.11635000  1.0
  N  N782  1  0.29416000  0.65551000  0.52926000  1.0
  N  N783  1  0.20932000  0.24817000  0.01166000  1.0
  N  N784  1  0.02858000  0.53293000  0.92646000  1.0
  N  N785  1  0.45580000  0.07362000  0.89603000  1.0
  N  N786  1  0.48406000  0.04122000  0.62810000  1.0
  N  N787  1  0.12172000  0.77346000  0.61766000  1.0
  N  N788  1  0.96714000  0.06934000  0.40372000  1.0
  N  N789  1  0.06244000  0.08406000  0.12483000  1.0
  N  N790  1  0.76564000  0.66247000  0.16149000  1.0
  N  N791  1  0.20716000  0.53401000  0.85784000  1.0
  O  O792  1  0.08668000  0.00035000  0.80513000  1.0
  O  O793  1  0.11300000  0.01893000  0.84943000  1.0
  O  O794  1  0.77950000  0.35009000  0.82050000  1.0
  O  O795  1  0.77292000  0.35928000  0.86598000  1.0
  O  O796  1  0.97812000  0.94281000  0.59393000  1.0
  O  O797  1  0.95602000  0.92991000  0.54898000  1.0
  O  O798  1  0.25860000  0.96025000  0.58247000  1.0
  O  O799  1  0.17138000  0.96222000  0.62210000  1.0
  O  O800  1  0.68500000  0.88313000  0.31063000  1.0
  O  O801  1  0.73888000  0.86835000  0.35368000  1.0
  O  O802  1  0.75114000  0.99458000  0.33496000  1.0
  O  O803  1  0.69146000  0.98097000  0.37739000  1.0
  O  O804  1  0.33130000  0.01104000  0.08554000  1.0
  O  O805  1  0.37990000  0.98960000  0.12826000  1.0
  O  O806  1  0.85594000  0.33524000  0.05058000  1.0
  O  O807  1  0.83002000  0.34999000  0.09517000  1.0
  O  O808  1  0.75260000  0.15923000  0.39823000  1.0
  O  O809  1  0.79612000  0.15450000  0.35394000  1.0
  O  O810  1  0.51094000  0.55755000  0.36458000  1.0
  O  O811  1  0.49656000  0.56015000  0.41007000  1.0
  O  O812  1  0.91586000  0.54125000  0.12102000  1.0
  O  O813  1  0.89862000  0.53502000  0.07557000  1.0
  O  O814  1  0.01800000  0.39749000  0.11721000  1.0
  O  O815  1  0.04574000  0.41611000  0.07304000  1.0
  O  O816  1  0.63124000  0.19793000  0.81359000  1.0
  O  O817  1  0.64374000  0.18979000  0.85906000  1.0
  O  O818  1  0.17162000  0.77063000  0.86829000  1.0
  O  O819  1  0.20634000  0.75556000  0.82415000  1.0
  O  O820  1  0.67174000  0.43587000  0.65777000  1.0
  O  O821  1  0.63686000  0.44206000  0.61295000  1.0
  O  O822  1  0.14862000  0.52306000  0.67110000  1.0
  O  O823  1  0.18438000  0.51408000  0.62660000  1.0
  O  O824  1  0.34846000  0.85860000  0.84713000  1.0
  O  O825  1  0.51656000  0.87650000  0.83597000  1.0
  O  O826  1  0.52074000  0.85868000  0.64087000  1.0
  O  O827  1  0.38052000  0.91207000  0.63340000  1.0
  O  O828  1  0.41618000  0.21634000  0.60759000  1.0
  O  O829  1  0.57268000  0.17578000  0.60121000  1.0
  O  O830  1  0.80326000  0.07331000  0.58202000  1.0
  O  O831  1  0.94586000  0.12452000  0.57388000  1.0
  O  O832  1  0.62674000  0.73934000  0.34352000  1.0
  O  O833  1  0.79096000  0.70548000  0.34617000  1.0
  O  O834  1  0.02590000  0.25667000  0.10671000  1.0
  O  O835  1  0.16728000  0.20405000  0.09945000  1.0
  O  O836  1  0.34000000  0.70219000  0.53262000  1.0
  O  O837  1  0.21334000  0.64338000  0.54441000  1.0
  O  O838  1  0.15782000  0.20333000  0.01567000  1.0
  O  O839  1  0.31042000  0.24928000  0.01674000  1.0
  O  O840  1  0.10814000  0.54682000  0.91132000  1.0
  O  O841  1  0.98036000  0.48747000  0.92141000  1.0
  O  O842  1  0.54636000  0.08852000  0.88601000  1.0
  O  O843  1  0.39588000  0.04112000  0.88184000  1.0
  O  O844  1  0.42172000  0.07381000  0.61477000  1.0
  O  O845  1  0.56988000  0.02423000  0.61631000  1.0
  O  O846  1  0.19448000  0.79914000  0.63142000  1.0
  O  O847  1  0.06806000  0.73564000  0.62980000  1.0
  O  O848  1  0.04822000  0.08242000  0.38886000  1.0
  O  O849  1  0.91246000  0.02663000  0.39717000  1.0
  O  O850  1  0.14846000  0.07484000  0.11114000  1.0
  O  O851  1  0.98362000  0.10808000  0.11259000  1.0
  O  O852  1  0.70750000  0.70162000  0.15188000  1.0
  O  O853  1  0.84964000  0.64800000  0.14809000  1.0
  O  O854  1  0.22468000  0.58396000  0.86481000  1.0
  O  O855  1  0.26890000  0.49642000  0.86756000  1.0
