# generated using pymatgen
data_NdH41(C10O)6
_symmetry_space_group_name_H-M   'P 1'
_cell_length_a   32.37060000
_cell_length_b   38.85060000
_cell_length_c   39.36440000
_cell_angle_alpha   91.78400000
_cell_angle_beta   99.80800000
_cell_angle_gamma   100.63600000
_symmetry_Int_Tables_number   1
_chemical_formula_structural   NdH41(C10O)6
_chemical_formula_sum   'Nd8 H328 C480 O48'
_cell_volume   47843.51619154
_cell_formula_units_Z   8
loop_
 _symmetry_equiv_pos_site_id
 _symmetry_equiv_pos_as_xyz
  1  'x, y, z'
loop_
 _atom_site_type_symbol
 _atom_site_label
 _atom_site_symmetry_multiplicity
 _atom_site_fract_x
 _atom_site_fract_y
 _atom_site_fract_z
 _atom_site_occupancy
  Nd  Nd0  1  0.03469000  0.05794000  0.07416000  1.0
  Nd  Nd1  1  0.11609000  0.06344000  0.08366000  1.0
  Nd  Nd2  1  0.94347000  0.10760000  0.04296000  1.0
  Nd  Nd3  1  0.21832000  0.09984000  0.04938000  1.0
  Nd  Nd4  1  0.53844000  0.54855000  0.57014000  1.0
  Nd  Nd5  1  0.62116000  0.55521000  0.57648000  1.0
  Nd  Nd6  1  0.47179000  0.61949000  0.55968000  1.0
  Nd  Nd7  1  0.71587000  0.58471000  0.53019000  1.0
  H  H8  1  0.11655000  0.26722000  0.48439000  1.0
  H  H9  1  0.06033000  0.26273000  0.47280000  1.0
  H  H10  1  0.07191000  0.32506000  0.45187000  1.0
  H  H11  1  0.06905000  0.30093000  0.52082000  1.0
  H  H12  1  0.10722000  0.34009000  0.52756000  1.0
  H  H13  1  0.01813000  0.77481000  0.41300000  1.0
  H  H14  1  0.06800000  0.76562000  0.40755000  1.0
  H  H15  1  0.03049000  0.71776000  0.36068000  1.0
  H  H16  1  0.00698000  0.70924000  0.43327000  1.0
  H  H17  1  0.00080000  0.67376000  0.40165000  1.0
  H  H18  1  0.03577000  0.70085000  0.78055000  1.0
  H  H19  1  0.08532000  0.72351000  0.77155000  1.0
  H  H20  1  0.04873000  0.75645000  0.72669000  1.0
  H  H21  1  0.01387000  0.67645000  0.71747000  1.0
  H  H22  1  0.01016000  0.70561000  0.68361000  1.0
  H  H23  1  0.00638000  0.36467000  0.77041000  1.0
  H  H24  1  0.01631000  0.33373000  0.74045000  1.0
  H  H25  1  0.08211000  0.40134000  0.76741000  1.0
  H  H26  1  0.10581000  0.34966000  0.73948000  1.0
  H  H27  1  0.07094000  0.35322000  0.70084000  1.0
  H  H28  1  0.57983000  0.83251000  0.93239000  1.0
  H  H29  1  0.54129000  0.84897000  0.90253000  1.0
  H  H30  1  0.59161000  0.89894000  0.89224000  1.0
  H  H31  1  0.61474000  0.88658000  0.96968000  1.0
  H  H32  1  0.62516000  0.92774000  0.95094000  1.0
  H  H33  1  0.59241000  0.36030000  0.96794000  1.0
  H  H34  1  0.64530000  0.35696000  0.96419000  1.0
  H  H35  1  0.61361000  0.29820000  0.92739000  1.0
  H  H36  1  0.60842000  0.30458000  0.00475000  1.0
  H  H37  1  0.60214000  0.26346000  0.98094000  1.0
  H  H38  1  0.52435000  0.18197000  0.28144000  1.0
  H  H39  1  0.57571000  0.20217000  0.27403000  1.0
  H  H40  1  0.54231000  0.24572000  0.23701000  1.0
  H  H41  1  0.50892000  0.16750000  0.21372000  1.0
  H  H42  1  0.50629000  0.20269000  0.18587000  1.0
  H  H43  1  0.49883000  0.86119000  0.26885000  1.0
  H  H44  1  0.50639000  0.83123000  0.23686000  1.0
  H  H45  1  0.57408000  0.89734000  0.26531000  1.0
  H  H46  1  0.59866000  0.84773000  0.23668000  1.0
  H  H47  1  0.56137000  0.84905000  0.19879000  1.0
  H  H48  1  0.13657000  0.14477000  0.25195000  1.0
  H  H49  1  0.13069000  0.10758000  0.20026000  1.0
  H  H50  1  0.04920000  0.16983000  0.14267000  1.0
  H  H51  1  0.05714000  0.20900000  0.19411000  1.0
  H  H52  1  0.03530000  0.21248000  0.24654000  1.0
  H  H53  1  0.03598000  0.24227000  0.30153000  1.0
  H  H54  1  0.16274000  0.22267000  0.33862000  1.0
  H  H55  1  0.16412000  0.19710000  0.28234000  1.0
  H  H56  1  0.02811000  0.22964000  0.35609000  1.0
  H  H57  1  0.02508000  0.24842000  0.41482000  1.0
  H  H58  1  0.16186000  0.28338000  0.43558000  1.0
  H  H59  1  0.16484000  0.26848000  0.37583000  1.0
  H  H60  1  0.12154000  0.92157000  0.19518000  1.0
  H  H61  1  0.12778000  0.96510000  0.15177000  1.0
  H  H62  1  0.00084000  0.98216000  0.15801000  1.0
  H  H63  1  0.99485000  0.93888000  0.20092000  1.0
  H  H64  1  0.03177000  0.93747000  0.26222000  1.0
  H  H65  1  0.02508000  0.89682000  0.30762000  1.0
  H  H66  1  0.06912000  0.82034000  0.24773000  1.0
  H  H67  1  0.07662000  0.86155000  0.20251000  1.0
  H  H68  1  0.10135000  0.81292000  0.30622000  1.0
  H  H69  1  0.09599000  0.77425000  0.35364000  1.0
  H  H70  1  0.97785000  0.80462000  0.36696000  1.0
  H  H71  1  0.98202000  0.84232000  0.31866000  1.0
  H  H72  1  0.11682000  0.95801000  0.93124000  1.0
  H  H73  1  0.12225000  0.00490000  0.97552000  1.0
  H  H74  1  0.00846000  0.94894000  0.00730000  1.0
  H  H75  1  0.00201000  0.90288000  0.96228000  1.0
  H  H76  1  0.07079000  0.93126000  0.87631000  1.0
  H  H77  1  0.06786000  0.88303000  0.83418000  1.0
  H  H78  1  0.03939000  0.80857000  0.91022000  1.0
  H  H79  1  0.04190000  0.85669000  0.95207000  1.0
  H  H80  1  0.99689000  0.77936000  0.85723000  1.0
  H  H81  1  0.99702000  0.73020000  0.81707000  1.0
  H  H82  1  0.10690000  0.78924000  0.78254000  1.0
  H  H83  1  0.10788000  0.83819000  0.82344000  1.0
  H  H84  1  0.15355000  0.20879000  0.97459000  1.0
  H  H85  1  0.15100000  0.16403000  0.01696000  1.0
  H  H86  1  0.01465000  0.13390000  0.98306000  1.0
  H  H87  1  0.01695000  0.17925000  0.94212000  1.0
  H  H88  1  0.03258000  0.24500000  0.94343000  1.0
  H  H89  1  0.02956000  0.28678000  0.89852000  1.0
  H  H90  1  0.13670000  0.25442000  0.86353000  1.0
  H  H91  1  0.13968000  0.21238000  0.90868000  1.0
  H  H92  1  0.08440000  0.25886000  0.80928000  1.0
  H  H93  1  0.06404000  0.29308000  0.76019000  1.0
  H  H94  1  0.04981000  0.37604000  0.82998000  1.0
  H  H95  1  0.06987000  0.34178000  0.87923000  1.0
  H  H96  1  0.66873000  0.67208000  0.72990000  1.0
  H  H97  1  0.66094000  0.62499000  0.68543000  1.0
  H  H98  1  0.53725000  0.64554000  0.64066000  1.0
  H  H99  1  0.54265000  0.68946000  0.68667000  1.0
  H  H100  1  0.64440000  0.68601000  0.77995000  1.0
  H  H101  1  0.64234000  0.72741000  0.82672000  1.0
  H  H102  1  0.56802000  0.78426000  0.75472000  1.0
  H  H103  1  0.57452000  0.74553000  0.70770000  1.0
  H  H104  1  0.59770000  0.82855000  0.79532000  1.0
  H  H105  1  0.58208000  0.86395000  0.84149000  1.0
  H  H106  1  0.58399000  0.77753000  0.90766000  1.0
  H  H107  1  0.59531000  0.74068000  0.86043000  1.0
  H  H108  1  0.64635000  0.43901000  0.71035000  1.0
  H  H109  1  0.64514000  0.47140000  0.65818000  1.0
  H  H110  1  0.50991000  0.46850000  0.65259000  1.0
  H  H111  1  0.51130000  0.43601000  0.70445000  1.0
  H  H112  1  0.54486000  0.45597000  0.76542000  1.0
  H  H113  1  0.55182000  0.43468000  0.82315000  1.0
  H  H114  1  0.62458000  0.35995000  0.79267000  1.0
  H  H115  1  0.61827000  0.38194000  0.73491000  1.0
  H  H116  1  0.66076000  0.37934000  0.85032000  1.0
  H  H117  1  0.67005000  0.35961000  0.90891000  1.0
  H  H118  1  0.54004000  0.36697000  0.91445000  1.0
  H  H119  1  0.52982000  0.38533000  0.85529000  1.0
  H  H120  1  0.62044000  0.43724000  0.43590000  1.0
  H  H121  1  0.62616000  0.48644000  0.47721000  1.0
  H  H122  1  0.49708000  0.44744000  0.49239000  1.0
  H  H123  1  0.49183000  0.39750000  0.45185000  1.0
  H  H124  1  0.48864000  0.37898000  0.39248000  1.0
  H  H125  1  0.48621000  0.32700000  0.35514000  1.0
  H  H126  1  0.61664000  0.32432000  0.40056000  1.0
  H  H127  1  0.61893000  0.37568000  0.43841000  1.0
  H  H128  1  0.61090000  0.31266000  0.33632000  1.0
  H  H129  1  0.60781000  0.26378000  0.29472000  1.0
  H  H130  1  0.48685000  0.21353000  0.31885000  1.0
  H  H131  1  0.48960000  0.26256000  0.36033000  1.0
  H  H132  1  0.51054000  0.67312000  0.44187000  1.0
  H  H133  1  0.51128000  0.62871000  0.48386000  1.0
  H  H134  1  0.64903000  0.64861000  0.50057000  1.0
  H  H135  1  0.64822000  0.69327000  0.45841000  1.0
  H  H136  1  0.62720000  0.69820000  0.39504000  1.0
  H  H137  1  0.62333000  0.74123000  0.35102000  1.0
  H  H138  1  0.52560000  0.77940000  0.39495000  1.0
  H  H139  1  0.52989000  0.73693000  0.43905000  1.0
  H  H140  1  0.56541000  0.83276000  0.37471000  1.0
  H  H141  1  0.54544000  0.86963000  0.32767000  1.0
  H  H142  1  0.55125000  0.78783000  0.25317000  1.0
  H  H143  1  0.57113000  0.75081000  0.30001000  1.0
  H  H144  1  0.19660000  0.24082000  0.15532000  1.0
  H  H145  1  0.15911000  0.20575000  0.10269000  1.0
  H  H146  1  0.19730000  0.11393000  0.14655000  1.0
  H  H147  1  0.23215000  0.14755000  0.19882000  1.0
  H  H148  1  0.25164000  0.18930000  0.24879000  1.0
  H  H149  1  0.32801000  0.20252000  0.27267000  1.0
  H  H150  1  0.35073000  0.26420000  0.18604000  1.0
  H  H151  1  0.27522000  0.25078000  0.16212000  1.0
  H  H152  1  0.41500000  0.28604000  0.23048000  1.0
  H  H153  1  0.48932000  0.27967000  0.23347000  1.0
  H  H154  1  0.45344000  0.16930000  0.24848000  1.0
  H  H155  1  0.37964000  0.17563000  0.24558000  1.0
  H  H156  1  0.27268000  0.96011000  0.10668000  1.0
  H  H157  1  0.22030000  0.99566000  0.08431000  1.0
  H  H158  1  0.26070000  0.06524000  0.17606000  1.0
  H  H159  1  0.31342000  0.03052000  0.19829000  1.0
  H  H160  1  0.33449000  0.97929000  0.21976000  1.0
  H  H161  1  0.39917000  0.95609000  0.23760000  1.0
  H  H162  1  0.41320000  0.94393000  0.13108000  1.0
  H  H163  1  0.34874000  0.96770000  0.11313000  1.0
  H  H164  1  0.43840000  0.89300000  0.15638000  1.0
  H  H165  1  0.49814000  0.86550000  0.17920000  1.0
  H  H166  1  0.53607000  0.94401000  0.26432000  1.0
  H  H167  1  0.47620000  0.97158000  0.24142000  1.0
  H  H168  1  0.28874000  0.96023000  0.95856000  1.0
  H  H169  1  0.24271000  0.99932000  0.97523000  1.0
  H  H170  1  0.35024000  0.05841000  0.04692000  1.0
  H  H171  1  0.39548000  0.01949000  0.03084000  1.0
  H  H172  1  0.39919000  0.95440000  0.03622000  1.0
  H  H173  1  0.45637000  0.92743000  0.02109000  1.0
  H  H174  1  0.41423000  0.94235000  0.91333000  1.0
  H  H175  1  0.35712000  0.96990000  0.92872000  1.0
  H  H176  1  0.47538000  0.87792000  0.99029000  1.0
  H  H177  1  0.54493000  0.86538000  0.98326000  1.0
  H  H178  1  0.56211000  0.95140000  0.91716000  1.0
  H  H179  1  0.49282000  0.96426000  0.92426000  1.0
  H  H180  1  0.27578000  0.16123000  0.89372000  1.0
  H  H181  1  0.22996000  0.12635000  0.92871000  1.0
  H  H182  1  0.24987000  0.21516000  0.00190000  1.0
  H  H183  1  0.29574000  0.24974000  0.96806000  1.0
  H  H184  1  0.32047000  0.27815000  0.92170000  1.0
  H  H185  1  0.39455000  0.30517000  0.92059000  1.0
  H  H186  1  0.42468000  0.20272000  0.90613000  1.0
  H  H187  1  0.35159000  0.17555000  0.90870000  1.0
  H  H188  1  0.47603000  0.24570000  0.87610000  1.0
  H  H189  1  0.55324000  0.26715000  0.89116000  1.0
  H  H190  1  0.53591000  0.32038000  0.98417000  1.0
  H  H191  1  0.45888000  0.29970000  0.96861000  1.0
  H  H192  1  0.89020000  0.24267000  0.94448000  1.0
  H  H193  1  0.92549000  0.19303000  0.95083000  1.0
  H  H194  1  0.98648000  0.23236000  0.05426000  1.0
  H  H195  1  0.95183000  0.28313000  0.04791000  1.0
  H  H196  1  0.87842000  0.27746000  0.05134000  1.0
  H  H197  1  0.80834000  0.29210000  0.04878000  1.0
  H  H198  1  0.80330000  0.31240000  0.94124000  1.0
  H  H199  1  0.87463000  0.29920000  0.94388000  1.0
  H  H200  1  0.75830000  0.33855000  0.03432000  1.0
  H  H201  1  0.68062000  0.33333333  0.02934000  1.0
  H  H202  1  0.66055000  0.25689000  0.94334000  1.0
  H  H203  1  0.73769000  0.26289000  0.94756000  1.0
  H  H204  1  0.75950000  0.16482000  0.08431000  1.0
  H  H205  1  0.81175000  0.14557000  0.05490000  1.0
  H  H206  1  0.90262000  0.15896000  0.15054000  1.0
  H  H207  1  0.84972000  0.17914000  0.18048000  1.0
  H  H208  1  0.77987000  0.15409000  0.19695000  1.0
  H  H209  1  0.71754000  0.16352000  0.22060000  1.0
  H  H210  1  0.68154000  0.22393000  0.13380000  1.0
  H  H211  1  0.74480000  0.21629000  0.11157000  1.0
  H  H212  1  0.65083000  0.24879000  0.17579000  1.0
  H  H213  1  0.57892000  0.24818000  0.18710000  1.0
  H  H214  1  0.57183000  0.14268000  0.21977000  1.0
  H  H215  1  0.64275000  0.14228000  0.20674000  1.0
  H  H216  1  0.81936000  0.95132000  0.08190000  1.0
  H  H217  1  0.87394000  0.98043000  0.05122000  1.0
  H  H218  1  0.93414000  0.04675000  0.14258000  1.0
  H  H219  1  0.87918000  0.01730000  0.17374000  1.0
  H  H220  1  0.83898000  0.95691000  0.19413000  1.0
  H  H221  1  0.77429000  0.93400000  0.21704000  1.0
  H  H222  1  0.69720000  0.96014000  0.12414000  1.0
  H  H223  1  0.76150000  0.98113000  0.10101000  1.0
  H  H224  1  0.65334000  0.90972000  0.13423000  1.0
  H  H225  1  0.59063000  0.87930000  0.15453000  1.0
  H  H226  1  0.65179000  0.90988000  0.25985000  1.0
  H  H227  1  0.71439000  0.94229000  0.23968000  1.0
  H  H228  1  0.91330000  0.98804000  0.90749000  1.0
  H  H229  1  0.96208000  0.04210000  0.93001000  1.0
  H  H230  1  0.96270000  0.00841000  0.03302000  1.0
  H  H231  1  0.92256000  0.95216000  0.01097000  1.0
  H  H232  1  0.85378000  0.93798000  0.99808000  1.0
  H  H233  1  0.78324000  0.90532000  0.98040000  1.0
  H  H234  1  0.80074000  0.90268000  0.87426000  1.0
  H  H235  1  0.87452000  0.93393000  0.89213000  1.0
  H  H236  1  0.73261000  0.92805000  0.87757000  1.0
  H  H237  1  0.65540000  0.92110000  0.87314000  1.0
  H  H238  1  0.65767000  0.84321000  0.94897000  1.0
  H  H239  1  0.73483000  0.84987000  0.95305000  1.0
  H  H240  1  0.74806000  0.65034000  0.67791000  1.0
  H  H241  1  0.71069000  0.61156000  0.62919000  1.0
  H  H242  1  0.66513000  0.69756000  0.57876000  1.0
  H  H243  1  0.70379000  0.73751000  0.62811000  1.0
  H  H244  1  0.78610000  0.74877000  0.63647000  1.0
  H  H245  1  0.85955000  0.76747000  0.66513000  1.0
  H  H246  1  0.82947000  0.71640000  0.75624000  1.0
  H  H247  1  0.75559000  0.69690000  0.72686000  1.0
  H  H248  1  0.88741000  0.69092000  0.74374000  1.0
  H  H249  1  0.96205000  0.68632000  0.75270000  1.0
  H  H250  1  0.99446000  0.78955000  0.71580000  1.0
  H  H251  1  0.91935000  0.79472000  0.70755000  1.0
  H  H252  1  0.77693000  0.45335000  0.60828000  1.0
  H  H253  1  0.72382000  0.48640000  0.58154000  1.0
  H  H254  1  0.77380000  0.57059000  0.65988000  1.0
  H  H255  1  0.82696000  0.53804000  0.68657000  1.0
  H  H256  1  0.84717000  0.48877000  0.71609000  1.0
  H  H257  1  0.91170000  0.46582000  0.73564000  1.0
  H  H258  1  0.91835000  0.43834000  0.62984000  1.0
  H  H259  1  0.85366000  0.46118000  0.61032000  1.0
  H  H260  1  0.94467000  0.39157000  0.65924000  1.0
  H  H261  1  0.00424000  0.36473000  0.68351000  1.0
  H  H262  1  0.04678000  0.44966000  0.76222000  1.0
  H  H263  1  0.98730000  0.47691000  0.73759000  1.0
  H  H264  1  0.79626000  0.42881000  0.49063000  1.0
  H  H265  1  0.74516000  0.46747000  0.49541000  1.0
  H  H266  1  0.84480000  0.55784000  0.49391000  1.0
  H  H267  1  0.89525000  0.51963000  0.48860000  1.0
  H  H268  1  0.92870000  0.48285000  0.53015000  1.0
  H  H269  1  0.98337000  0.44736000  0.53239000  1.0
  H  H270  1  0.89969000  0.37298000  0.45529000  1.0
  H  H271  1  0.84449000  0.40870000  0.45324000  1.0
  H  H272  1  0.93702000  0.33597000  0.49357000  1.0
  H  H273  1  0.99364000  0.30145000  0.49958000  1.0
  H  H274  1  0.08824000  0.39621000  0.50402000  1.0
  H  H275  1  0.03186000  0.43088000  0.49721000  1.0
  H  H276  1  0.69331000  0.60781000  0.34868000  1.0
  H  H277  1  0.67368000  0.58358000  0.40182000  1.0
  H  H278  1  0.72576000  0.68401000  0.45687000  1.0
  H  H279  1  0.74471000  0.70835000  0.40481000  1.0
  H  H280  1  0.76706000  0.61898000  0.34204000  1.0
  H  H281  1  0.83682000  0.64102000  0.32848000  1.0
  H  H282  1  0.81431000  0.74679000  0.33485000  1.0
  H  H283  1  0.74306000  0.72465000  0.34699000  1.0
  H  H284  1  0.89337000  0.68105000  0.29716000  1.0
  H  H285  1  0.97061000  0.69340000  0.31887000  1.0
  H  H286  1  0.94993000  0.74738000  0.41029000  1.0
  H  H287  1  0.87390000  0.73666000  0.38788000  1.0
  H  H288  1  0.36070000  0.74451000  0.49209000  1.0
  H  H289  1  0.42521000  0.72255000  0.51538000  1.0
  H  H290  1  0.38334000  0.63155000  0.44364000  1.0
  H  H291  1  0.31942000  0.65369000  0.41998000  1.0
  H  H292  1  0.28755000  0.71027000  0.50317000  1.0
  H  H293  1  0.21123000  0.70911000  0.49433000  1.0
  H  H294  1  0.20613000  0.70345000  0.38373000  1.0
  H  H295  1  0.28256000  0.70298000  0.39291000  1.0
  H  H296  1  0.15508000  0.73817000  0.47637000  1.0
  H  H297  1  0.07783000  0.73384000  0.46604000  1.0
  H  H298  1  0.06538000  0.66259000  0.37712000  1.0
  H  H299  1  0.14236000  0.66506000  0.38833000  1.0
  H  H300  1  0.26627000  0.61433000  0.60992000  1.0
  H  H301  1  0.32487000  0.60065000  0.58419000  1.0
  H  H302  1  0.40887000  0.69237000  0.63850000  1.0
  H  H303  1  0.35020000  0.70574000  0.66532000  1.0
  H  H304  1  0.24201000  0.61507000  0.66371000  1.0
  H  H305  1  0.17862000  0.62726000  0.68307000  1.0
  H  H306  1  0.22056000  0.73794000  0.67207000  1.0
  H  H307  1  0.28293000  0.72539000  0.65064000  1.0
  H  H308  1  0.14546000  0.73032000  0.65223000  1.0
  H  H309  1  0.07648000  0.73813000  0.66523000  1.0
  H  H310  1  0.08208000  0.65950000  0.73986000  1.0
  H  H311  1  0.15188000  0.65254000  0.72819000  1.0
  H  H312  1  0.39760000  0.50662000  0.68246000  1.0
  H  H313  1  0.45348000  0.53848000  0.65342000  1.0
  H  H314  1  0.37298000  0.50506000  0.55481000  1.0
  H  H315  1  0.31837000  0.47284000  0.58313000  1.0
  H  H316  1  0.27219000  0.49968000  0.61610000  1.0
  H  H317  1  0.20878000  0.47718000  0.63987000  1.0
  H  H318  1  0.28380000  0.42440000  0.71522000  1.0
  H  H319  1  0.34786000  0.44795000  0.69167000  1.0
  H  H320  1  0.22944000  0.43480000  0.74601000  1.0
  H  H321  1  0.16580000  0.40227000  0.76476000  1.0
  H  H322  1  0.09679000  0.39348000  0.66019000  1.0
  H  H323  1  0.16025000  0.42475000  0.64100000  1.0
  H  H324  1  0.41719000  0.45331000  0.52964000  1.0
  H  H325  1  0.46593000  0.50884000  0.54300000  1.0
  H  H326  1  0.41949000  0.54324000  0.44324000  1.0
  H  H327  1  0.36616000  0.48936000  0.43131000  1.0
  H  H328  1  0.33573000  0.42967000  0.42179000  1.0
  H  H329  1  0.26611000  0.39106000  0.41843000  1.0
  H  H330  1  0.27802000  0.40440000  0.52916000  1.0
  H  H331  1  0.34629000  0.44271000  0.53264000  1.0
  H  H332  1  0.24143000  0.34393000  0.51609000  1.0
  H  H333  1  0.16928000  0.31260000  0.51711000  1.0
  H  H334  1  0.12113000  0.36548000  0.42833000  1.0
  H  H335  1  0.19350000  0.39759000  0.42777000  1.0
  C  C336  1  0.06871000  0.00460000  0.12686000  1.0
  C  C337  1  0.08054000  0.11733000  0.02887000  1.0
  C  C338  1  0.06933000  0.00831000  0.02205000  1.0
  C  C339  1  0.97404000  0.06677000  0.99635000  1.0
  C  C340  1  0.21929000  0.06154000  0.11032000  1.0
  C  C341  1  0.22730000  0.14525000  0.99552000  1.0
  C  C342  1  0.08459000  0.11175000  0.13715000  1.0
  C  C343  1  0.18063000  0.14385000  0.08672000  1.0
  C  C344  1  0.92769000  0.04135000  0.07184000  1.0
  C  C345  1  0.95909000  0.17243000  0.01237000  1.0
  C  C346  1  0.89085000  0.13672000  0.08177000  1.0
  C  C347  1  0.26671000  0.05576000  0.02263000  1.0
  C  C348  1  0.57783000  0.49718000  0.62351000  1.0
  C  C349  1  0.58033000  0.60693000  0.52126000  1.0
  C  C350  1  0.56725000  0.49863000  0.51551000  1.0
  C  C351  1  0.46549000  0.56692000  0.50570000  1.0
  C  C352  1  0.72638000  0.55598000  0.59616000  1.0
  C  C353  1  0.70279000  0.61580000  0.46649000  1.0
  C  C354  1  0.59453000  0.60508000  0.63106000  1.0
  C  C355  1  0.68457000  0.63384000  0.56704000  1.0
  C  C356  1  0.43975000  0.55308000  0.58454000  1.0
  C  C357  1  0.43639000  0.65594000  0.50354000  1.0
  C  C358  1  0.40593000  0.63707000  0.59277000  1.0
  C  C359  1  0.76352000  0.53938000  0.50386000  1.0
  C  C360  1  0.09113000  0.27689000  0.46677000  1.0
  C  C361  1  0.09437000  0.31687000  0.47346000  1.0
  C  C362  1  0.08017000  0.32531000  0.50820000  1.0
  C  C363  1  0.03477000  0.76412000  0.39385000  1.0
  C  C364  1  0.01374000  0.72569000  0.38129000  1.0
  C  C365  1  0.01957000  0.70042000  0.41058000  1.0
  C  C366  1  0.05172000  0.72602000  0.77179000  1.0
  C  C367  1  0.02980000  0.73228000  0.73506000  1.0
  C  C368  1  0.02968000  0.70176000  0.70884000  1.0
  C  C369  1  0.03264000  0.35422000  0.76123000  1.0
  C  C370  1  0.06115000  0.38417000  0.74563000  1.0
  C  C371  1  0.09042000  0.36890000  0.72410000  1.0
  C  C372  1  0.57530000  0.84613000  0.90795000  1.0
  C  C373  1  0.60441000  0.88301000  0.91309000  1.0
  C  C374  1  0.60298000  0.90184000  0.94784000  1.0
  C  C375  1  0.61139000  0.34843000  0.95144000  1.0
  C  C376  1  0.59886000  0.30789000  0.94849000  1.0
  C  C377  1  0.61692000  0.29177000  0.98192000  1.0
  C  C378  1  0.54332000  0.20722000  0.27547000  1.0
  C  C379  1  0.52304000  0.21967000  0.24067000  1.0
  C  C380  1  0.52473000  0.19468000  0.20984000  1.0
  C  C381  1  0.52405000  0.85057000  0.25826000  1.0
  C  C382  1  0.55277000  0.88086000  0.24324000  1.0
  C  C383  1  0.58161000  0.86588000  0.22103000  1.0
  C  C384  1  0.09747000  0.18021000  0.22748000  1.0
  C  C385  1  0.11833000  0.15143000  0.22825000  1.0
  C  C386  1  0.11460000  0.12974000  0.19864000  1.0
  C  C387  1  0.08925000  0.13578000  0.16768000  1.0
  C  C388  1  0.06852000  0.16447000  0.16647000  1.0
  C  C389  1  0.07299000  0.18677000  0.19601000  1.0
  C  C390  1  0.09939000  0.20169000  0.25991000  1.0
  C  C391  1  0.06392000  0.21553000  0.26597000  1.0
  C  C392  1  0.06396000  0.23204000  0.29800000  1.0
  C  C393  1  0.09895000  0.23429000  0.32520000  1.0
  C  C394  1  0.13514000  0.22183000  0.31857000  1.0
  C  C395  1  0.13561000  0.20632000  0.28625000  1.0
  C  C396  1  0.09679000  0.24743000  0.36075000  1.0
  C  C397  1  0.05753000  0.24240000  0.37259000  1.0
  C  C398  1  0.05574000  0.25264000  0.40650000  1.0
  C  C399  1  0.09322000  0.26713000  0.42976000  1.0
  C  C400  1  0.13241000  0.27239000  0.41816000  1.0
  C  C401  1  0.13410000  0.26327000  0.38391000  1.0
  C  C402  1  0.05785000  0.92719000  0.20146000  1.0
  C  C403  1  0.09496000  0.93448000  0.18687000  1.0
  C  C404  1  0.09856000  0.95944000  0.16220000  1.0
  C  C405  1  0.06494000  0.97718000  0.15167000  1.0
  C  C406  1  0.02747000  0.96912000  0.16571000  1.0
  C  C407  1  0.02402000  0.94443000  0.19039000  1.0
  C  C408  1  0.05456000  0.90249000  0.22892000  1.0
  C  C409  1  0.03979000  0.91189000  0.25874000  1.0
  C  C410  1  0.03579000  0.88857000  0.28463000  1.0
  C  C411  1  0.04626000  0.85529000  0.28112000  1.0
  C  C412  1  0.06124000  0.84595000  0.25130000  1.0
  C  C413  1  0.06552000  0.86945000  0.22545000  1.0
  C  C414  1  0.04224000  0.83081000  0.30887000  1.0
  C  C415  1  0.07391000  0.81099000  0.31889000  1.0
  C  C416  1  0.07112000  0.78918000  0.34616000  1.0
  C  C417  1  0.03695000  0.78717000  0.36411000  1.0
  C  C418  1  0.00475000  0.80624000  0.35370000  1.0
  C  C419  1  0.00733000  0.82788000  0.32625000  1.0
  C  C420  1  0.05893000  0.92683000  0.94327000  1.0
  C  C421  1  0.09254000  0.95612000  0.94728000  1.0
  C  C422  1  0.09583000  0.98280000  0.97278000  1.0
  C  C423  1  0.06542000  0.98076000  0.99452000  1.0
  C  C424  1  0.03172000  0.95164000  0.99034000  1.0
  C  C425  1  0.02840000  0.92500000  0.96490000  1.0
  C  C426  1  0.05651000  0.89771000  0.91743000  1.0
  C  C427  1  0.06406000  0.90458000  0.88398000  1.0
  C  C428  1  0.06244000  0.87697000  0.85990000  1.0
  C  C429  1  0.05339000  0.84198000  0.86886000  1.0
  C  C430  1  0.04572000  0.83519000  0.90231000  1.0
  C  C431  1  0.04720000  0.86275000  0.92631000  1.0
  C  C432  1  0.05253000  0.81260000  0.84367000  1.0
  C  C433  1  0.02141000  0.78174000  0.84141000  1.0
  C  C434  1  0.02133000  0.75368000  0.81839000  1.0
  C  C435  1  0.05232000  0.75596000  0.79720000  1.0
  C  C436  1  0.08300000  0.78690000  0.79896000  1.0
  C  C437  1  0.08324000  0.81494000  0.82208000  1.0
  C  C438  1  0.08541000  0.19775000  0.95511000  1.0
  C  C439  1  0.12308000  0.19254000  0.97630000  1.0
  C  C440  1  0.12161000  0.16675000  0.00052000  1.0
  C  C441  1  0.08261000  0.14510000  0.00358000  1.0
  C  C442  1  0.04519000  0.15017000  0.98197000  1.0
  C  C443  1  0.04648000  0.17628000  0.95833000  1.0
  C  C444  1  0.08620000  0.22521000  0.92950000  1.0
  C  C445  1  0.05569000  0.24695000  0.92632000  1.0
  C  C446  1  0.05423000  0.27115000  0.90075000  1.0
  C  C447  1  0.08293000  0.27401000  0.87741000  1.0
  C  C448  1  0.11405000  0.25277000  0.88101000  1.0
  C  C449  1  0.11591000  0.22885000  0.90698000  1.0
  C  C450  1  0.07815000  0.29736000  0.84818000  1.0
  C  C451  1  0.07811000  0.28480000  0.81426000  1.0
  C  C452  1  0.06652000  0.30440000  0.78612000  1.0
  C  C453  1  0.05510000  0.33712000  0.79129000  1.0
  C  C454  1  0.05842000  0.35090000  0.82528000  1.0
  C  C455  1  0.06952000  0.33114000  0.85342000  1.0
  C  C456  1  0.60653000  0.68502000  0.71178000  1.0
  C  C457  1  0.63974000  0.66636000  0.71076000  1.0
  C  C458  1  0.63574000  0.63987000  0.68487000  1.0
  C  C459  1  0.59920000  0.63236000  0.65898000  1.0
  C  C460  1  0.56612000  0.65093000  0.66002000  1.0
  C  C461  1  0.56955000  0.67664000  0.68623000  1.0
  C  C462  1  0.60902000  0.71199000  0.74000000  1.0
  C  C463  1  0.62875000  0.70794000  0.77391000  1.0
  C  C464  1  0.62679000  0.73138000  0.80095000  1.0
  C  C465  1  0.60423000  0.75893000  0.79484000  1.0
  C  C466  1  0.58600000  0.76368000  0.76067000  1.0
  C  C467  1  0.58898000  0.74089000  0.73361000  1.0
  C  C468  1  0.59800000  0.78159000  0.82394000  1.0
  C  C469  1  0.59415000  0.81672000  0.81942000  1.0
  C  C470  1  0.58574000  0.83729000  0.84611000  1.0
  C  C471  1  0.58301000  0.82376000  0.87848000  1.0
  C  C472  1  0.58681000  0.78878000  0.88314000  1.0
  C  C473  1  0.59389000  0.76783000  0.85613000  1.0
  C  C474  1  0.57900000  0.43544000  0.71160000  1.0
  C  C475  1  0.61625000  0.44463000  0.69744000  1.0
  C  C476  1  0.61556000  0.46327000  0.66764000  1.0
  C  C477  1  0.57756000  0.47289000  0.65152000  1.0
  C  C478  1  0.53982000  0.46178000  0.66455000  1.0
  C  C479  1  0.54057000  0.44330000  0.69434000  1.0
  C  C480  1  0.58096000  0.42051000  0.74573000  1.0
  C  C481  1  0.56181000  0.43465000  0.77093000  1.0
  C  C482  1  0.56578000  0.42244000  0.80400000  1.0
  C  C483  1  0.58881000  0.39567000  0.81253000  1.0
  C  C484  1  0.60726000  0.38102000  0.78706000  1.0
  C  C485  1  0.60353000  0.39346000  0.75399000  1.0
  C  C486  1  0.59452000  0.38386000  0.84812000  1.0
  C  C487  1  0.63401000  0.37650000  0.86386000  1.0
  C  C488  1  0.63958000  0.36571000  0.89749000  1.0
  C  C489  1  0.60601000  0.36258000  0.91619000  1.0
  C  C490  1  0.56655000  0.36989000  0.90064000  1.0
  C  C491  1  0.56082000  0.38041000  0.86687000  1.0
  C  C492  1  0.55592000  0.41315000  0.44099000  1.0
  C  C493  1  0.59335000  0.43903000  0.44819000  1.0
  C  C494  1  0.59653000  0.46737000  0.47169000  1.0
  C  C495  1  0.56219000  0.47062000  0.48824000  1.0
  C  C496  1  0.52405000  0.44566000  0.47997000  1.0
  C  C497  1  0.52100000  0.41709000  0.45665000  1.0
  C  C498  1  0.55407000  0.38161000  0.41824000  1.0
  C  C499  1  0.51661000  0.36706000  0.39479000  1.0
  C  C500  1  0.51519000  0.33734000  0.37344000  1.0
  C  C501  1  0.55128000  0.32178000  0.37502000  1.0
  C  C502  1  0.58858000  0.33612000  0.39858000  1.0
  C  C503  1  0.58991000  0.36562000  0.42009000  1.0
  C  C504  1  0.55046000  0.29129000  0.35145000  1.0
  C  C505  1  0.58403000  0.29088000  0.33316000  1.0
  C  C506  1  0.58236000  0.26301000  0.30949000  1.0
  C  C507  1  0.54741000  0.23487000  0.30408000  1.0
  C  C508  1  0.51430000  0.23484000  0.32292000  1.0
  C  C509  1  0.51572000  0.26292000  0.34635000  1.0
  C  C510  1  0.57938000  0.68670000  0.44649000  1.0
  C  C511  1  0.54106000  0.66814000  0.45458000  1.0
  C  C512  1  0.54150000  0.64242000  0.47872000  1.0
  C  C513  1  0.58023000  0.63447000  0.49562000  1.0
  C  C514  1  0.61856000  0.65333000  0.48779000  1.0
  C  C515  1  0.61815000  0.67899000  0.46347000  1.0
  C  C516  1  0.57867000  0.71393000  0.42053000  1.0
  C  C517  1  0.60527000  0.71608000  0.39554000  1.0
  C  C518  1  0.60286000  0.74060000  0.37015000  1.0
  C  C519  1  0.57421000  0.76390000  0.36940000  1.0
  C  C520  1  0.54841000  0.76223000  0.39492000  1.0
  C  C521  1  0.55049000  0.73754000  0.42002000  1.0
  C  C522  1  0.56918000  0.78853000  0.34119000  1.0
  C  C523  1  0.56309000  0.82280000  0.34832000  1.0
  C  C524  1  0.55211000  0.84410000  0.32143000  1.0
  C  C525  1  0.54651000  0.83151000  0.28679000  1.0
  C  C526  1  0.55546000  0.79824000  0.27964000  1.0
  C  C527  1  0.56679000  0.77703000  0.30652000  1.0
  C  C528  1  0.21842000  0.19724000  0.18098000  1.0
  C  C529  1  0.19421000  0.21263000  0.15461000  1.0
  C  C530  1  0.17226000  0.19245000  0.12455000  1.0
  C  C531  1  0.17461000  0.15688000  0.12050000  1.0
  C  C532  1  0.19346000  0.14088000  0.14905000  1.0
  C  C533  1  0.21406000  0.16057000  0.17926000  1.0
  C  C534  1  0.25744000  0.21807000  0.20304000  1.0
  C  C535  1  0.27275000  0.20691000  0.23565000  1.0
  C  C536  1  0.31651000  0.21425000  0.24918000  1.0
  C  C537  1  0.34548000  0.23342000  0.23062000  1.0
  C  C538  1  0.32933000  0.24920000  0.20090000  1.0
  C  C539  1  0.28568000  0.24165000  0.18725000  1.0
  C  C540  1  0.39149000  0.23143000  0.23804000  1.0
  C  C541  1  0.42321000  0.26057000  0.23490000  1.0
  C  C542  1  0.46566000  0.25687000  0.23644000  1.0
  C  C543  1  0.47722000  0.22390000  0.24083000  1.0
  C  C544  1  0.44564000  0.19501000  0.24499000  1.0
  C  C545  1  0.40338000  0.19877000  0.24375000  1.0
  C  C546  1  0.29816000  0.99265000  0.15412000  1.0
  C  C547  1  0.26974000  0.98247000  0.12256000  1.0
  C  C548  1  0.23883000  0.00233000  0.11006000  1.0
  C  C549  1  0.23569000  0.03285000  0.12880000  1.0
  C  C550  1  0.26153000  0.04133000  0.16151000  1.0
  C  C551  1  0.29221000  0.02148000  0.17408000  1.0
  C  C552  1  0.33598000  0.97555000  0.16491000  1.0
  C  C553  1  0.35135000  0.97192000  0.20005000  1.0
  C  C554  1  0.38872000  0.95866000  0.21035000  1.0
  C  C555  1  0.41194000  0.94842000  0.18588000  1.0
  C  C556  1  0.39615000  0.95130000  0.15069000  1.0
  C  C557  1  0.35885000  0.96477000  0.14036000  1.0
  C  C558  1  0.45191000  0.93431000  0.19723000  1.0
  C  C559  1  0.46019000  0.90509000  0.17938000  1.0
  C  C560  1  0.49496000  0.88943000  0.19238000  1.0
  C  C561  1  0.52295000  0.90286000  0.22339000  1.0
  C  C562  1  0.51589000  0.93327000  0.24010000  1.0
  C  C563  1  0.48103000  0.94877000  0.22724000  1.0
  C  C564  1  0.34542000  0.98676000  0.99370000  1.0
  C  C565  1  0.30221000  0.98156000  0.97793000  1.0
  C  C566  1  0.27602000  0.00381000  0.98741000  1.0
  C  C567  1  0.29314000  0.03189000  0.01212000  1.0
  C  C568  1  0.33633000  0.03708000  0.02763000  1.0
  C  C569  1  0.36213000  0.01463000  0.01867000  1.0
  C  C570  1  0.37416000  0.96446000  0.98364000  1.0
  C  C571  1  0.40171000  0.95127000  0.00926000  1.0
  C  C572  1  0.43422000  0.93563000  0.00055000  1.0
  C  C573  1  0.43994000  0.93306000  0.96605000  1.0
  C  C574  1  0.41076000  0.94436000  0.94015000  1.0
  C  C575  1  0.37793000  0.95980000  0.94888000  1.0
  C  C576  1  0.47880000  0.92215000  0.95796000  1.0
  C  C577  1  0.49389000  0.89397000  0.97408000  1.0
  C  C578  1  0.53357000  0.88684000  0.97014000  1.0
  C  C579  1  0.55893000  0.90792000  0.95023000  1.0
  C  C580  1  0.54313000  0.93507000  0.93288000  1.0
  C  C581  1  0.50339000  0.94215000  0.93670000  1.0
  C  C582  1  0.29060000  0.20803000  0.92852000  1.0
  C  C583  1  0.26905000  0.17373000  0.91657000  1.0
  C  C584  1  0.24232000  0.15386000  0.93628000  1.0
  C  C585  1  0.23702000  0.16818000  0.96799000  1.0
  C  C586  1  0.25360000  0.20371000  0.97741000  1.0
  C  C587  1  0.27996000  0.22356000  0.95781000  1.0
  C  C588  1  0.33009000  0.22460000  0.91609000  1.0
  C  C589  1  0.34264000  0.26138000  0.91761000  1.0
  C  C590  1  0.38502000  0.27689000  0.91697000  1.0
  C  C591  1  0.41537000  0.25596000  0.91393000  1.0
  C  C592  1  0.40188000  0.21946000  0.90848000  1.0
  C  C593  1  0.35971000  0.20390000  0.90969000  1.0
  C  C594  1  0.46155000  0.27142000  0.92097000  1.0
  C  C595  1  0.48883000  0.26238000  0.89948000  1.0
  C  C596  1  0.53294000  0.27455000  0.90819000  1.0
  C  C597  1  0.55072000  0.29557000  0.93882000  1.0
  C  C598  1  0.52326000  0.30460000  0.96025000  1.0
  C  C599  1  0.47914000  0.29293000  0.95124000  1.0
  C  C600  1  0.91672000  0.26629000  0.99628000  1.0
  C  C601  1  0.91297000  0.24219000  0.96794000  1.0
  C  C602  1  0.93325000  0.21351000  0.97149000  1.0
  C  C603  1  0.95759000  0.20854000  0.00329000  1.0
  C  C604  1  0.96756000  0.23558000  0.02950000  1.0
  C  C605  1  0.94718000  0.26441000  0.02600000  1.0
  C  C606  1  0.88206000  0.28645000  0.99757000  1.0
  C  C607  1  0.86364000  0.28676000  0.02753000  1.0
  C  C608  1  0.82316000  0.29491000  0.02608000  1.0
  C  C609  1  0.80022000  0.30260000  0.99465000  1.0
  C  C610  1  0.82023000  0.30594000  0.96565000  1.0
  C  C611  1  0.86103000  0.29834000  0.96719000  1.0
  C  C612  1  0.75381000  0.30161000  0.99092000  1.0
  C  C613  1  0.73713000  0.32096000  0.01420000  1.0
  C  C614  1  0.69288000  0.31779000  0.01151000  1.0
  C  C615  1  0.66476000  0.29470000  0.98595000  1.0
  C  C616  1  0.68159000  0.27502000  0.96309000  1.0
  C  C617  1  0.72563000  0.27869000  0.96532000  1.0
  C  C618  1  0.80053000  0.17389000  0.13470000  1.0
  C  C619  1  0.79080000  0.16442000  0.09912000  1.0
  C  C620  1  0.82072000  0.15305000  0.08227000  1.0
  C  C621  1  0.86122000  0.15076000  0.10048000  1.0
  C  C622  1  0.87159000  0.16060000  0.13597000  1.0
  C  C623  1  0.84131000  0.17195000  0.15305000  1.0
  C  C624  1  0.76696000  0.18404000  0.15214000  1.0
  C  C625  1  0.75925000  0.17020000  0.18352000  1.0
  C  C626  1  0.72316000  0.17521000  0.19679000  1.0
  C  C627  1  0.69401000  0.19405000  0.17889000  1.0
  C  C628  1  0.70324000  0.20951000  0.14854000  1.0
  C  C629  1  0.73935000  0.20476000  0.13550000  1.0
  C  C630  1  0.65263000  0.19548000  0.19004000  1.0
  C  C631  1  0.63398000  0.22535000  0.18521000  1.0
  C  C632  1  0.59293000  0.22515000  0.19189000  1.0
  C  C633  1  0.56985000  0.19531000  0.20407000  1.0
  C  C634  1  0.58894000  0.16594000  0.21022000  1.0
  C  C635  1  0.62980000  0.16593000  0.20313000  1.0
  C  C636  1  0.84430000  0.98254000  0.13003000  1.0
  C  C637  1  0.84495000  0.97132000  0.09587000  1.0
  C  C638  1  0.87670000  0.98759000  0.07843000  1.0
  C  C639  1  0.90862000  0.01561000  0.09453000  1.0
  C  C640  1  0.91061000  0.02467000  0.12972000  1.0
  C  C641  1  0.87874000  0.00812000  0.14742000  1.0
  C  C642  1  0.80544000  0.97024000  0.14549000  1.0
  C  C643  1  0.80813000  0.95771000  0.17874000  1.0
  C  C644  1  0.77085000  0.94480000  0.19194000  1.0
  C  C645  1  0.72987000  0.94465000  0.17244000  1.0
  C  C646  1  0.72766000  0.95863000  0.13972000  1.0
  C  C647  1  0.76473000  0.97089000  0.12639000  1.0
  C  C648  1  0.68969000  0.92858000  0.18516000  1.0
  C  C649  1  0.65329000  0.91128000  0.16169000  1.0
  C  C650  1  0.61702000  0.89366000  0.17333000  1.0
  C  C651  1  0.61593000  0.89240000  0.20880000  1.0
  C  C652  1  0.65135000  0.91081000  0.23233000  1.0
  C  C653  1  0.68763000  0.92883000  0.22069000  1.0
  C  C654  1  0.91145000  0.96591000  0.95750000  1.0
  C  C655  1  0.92642000  0.99074000  0.93479000  1.0
  C  C656  1  0.95478000  0.02203000  0.94773000  1.0
  C  C657  1  0.96745000  0.02975000  0.98353000  1.0
  C  C658  1  0.95524000  0.00356000  0.00546000  1.0
  C  C659  1  0.93030000  0.97132000  0.99257000  1.0
  C  C660  1  0.87103000  0.93929000  0.94670000  1.0
  C  C661  1  0.84452000  0.92922000  0.97111000  1.0
  C  C662  1  0.80321000  0.91036000  0.96094000  1.0
  C  C663  1  0.78638000  0.90151000  0.92597000  1.0
  C  C664  1  0.81302000  0.90941000  0.90146000  1.0
  C  C665  1  0.85522000  0.92768000  0.91178000  1.0
  C  C666  1  0.73965000  0.88961000  0.91577000  1.0
  C  C667  1  0.71636000  0.90841000  0.89219000  1.0
  C  C668  1  0.67225000  0.90472000  0.88997000  1.0
  C  C669  1  0.65062000  0.88198000  0.91105000  1.0
  C  C670  1  0.67348000  0.86103000  0.93252000  1.0
  C  C671  1  0.71757000  0.86475000  0.93476000  1.0
  C  C672  1  0.72899000  0.69710000  0.65693000  1.0
  C  C673  1  0.72798000  0.66090000  0.65759000  1.0
  C  C674  1  0.70615000  0.63838000  0.62952000  1.0
  C  C675  1  0.68379000  0.65114000  0.60044000  1.0
  C  C676  1  0.68055000  0.68669000  0.60143000  1.0
  C  C677  1  0.70312000  0.70963000  0.62948000  1.0
  C  C678  1  0.76531000  0.72074000  0.67918000  1.0
  C  C679  1  0.79451000  0.74307000  0.66323000  1.0
  C  C680  1  0.83694000  0.75371000  0.67974000  1.0
  C  C681  1  0.85083000  0.74244000  0.71263000  1.0
  C  C682  1  0.82006000  0.72457000  0.73049000  1.0
  C  C683  1  0.77764000  0.71374000  0.71386000  1.0
  C  C684  1  0.89715000  0.74319000  0.72475000  1.0
  C  C685  1  0.91042000  0.71323000  0.73860000  1.0
  C  C686  1  0.95330000  0.71035000  0.74337000  1.0
  C  C687  1  0.98411000  0.73731000  0.73437000  1.0
  C  C688  1  0.97138000  0.76818000  0.72258000  1.0
  C  C689  1  0.92837000  0.77112000  0.71786000  1.0
  C  C690  1  0.80694000  0.49321000  0.64930000  1.0
  C  C691  1  0.77586000  0.47848000  0.62042000  1.0
  C  C692  1  0.74467000  0.49704000  0.60552000  1.0
  C  C693  1  0.74407000  0.53079000  0.61906000  1.0
  C  C694  1  0.77278000  0.54425000  0.64946000  1.0
  C  C695  1  0.80363000  0.52564000  0.66454000  1.0
  C  C696  1  0.84483000  0.47680000  0.66157000  1.0
  C  C697  1  0.86237000  0.47792000  0.69695000  1.0
  C  C698  1  0.89969000  0.46489000  0.70817000  1.0
  C  C699  1  0.92080000  0.45042000  0.68439000  1.0
  C  C700  1  0.90295000  0.44891000  0.64902000  1.0
  C  C701  1  0.86557000  0.46190000  0.63779000  1.0
  C  C702  1  0.96054000  0.43628000  0.69663000  1.0
  C  C703  1  0.96741000  0.40522000  0.68103000  1.0
  C  C704  1  0.00206000  0.38988000  0.69486000  1.0
  C  C705  1  0.03121000  0.40526000  0.72462000  1.0
  C  C706  1  0.02557000  0.43731000  0.73904000  1.0
  C  C707  1  0.99091000  0.45264000  0.72522000  1.0
  C  C708  1  0.84993000  0.47126000  0.48982000  1.0
  C  C709  1  0.80687000  0.45691000  0.49054000  1.0
  C  C710  1  0.77765000  0.47896000  0.49326000  1.0
  C  C711  1  0.79121000  0.51555000  0.49527000  1.0
  C  C712  1  0.83359000  0.52970000  0.49268000  1.0
  C  C713  1  0.86257000  0.50783000  0.48987000  1.0
  C  C714  1  0.88246000  0.44877000  0.49121000  1.0
  C  C715  1  0.92208000  0.45911000  0.51340000  1.0
  C  C716  1  0.95347000  0.43878000  0.51465000  1.0
  C  C717  1  0.94611000  0.40753000  0.49374000  1.0
  C  C718  1  0.90623000  0.39681000  0.47188000  1.0
  C  C719  1  0.87464000  0.41723000  0.47068000  1.0
  C  C720  1  0.97997000  0.38622000  0.49534000  1.0
  C  C721  1  0.96981000  0.34944000  0.49545000  1.0
  C  C722  1  0.00213000  0.32972000  0.49919000  1.0
  C  C723  1  0.04514000  0.34642000  0.50320000  1.0
  C  C724  1  0.05529000  0.38296000  0.50180000  1.0
  C  C725  1  0.02305000  0.40269000  0.49800000  1.0
  C  C726  1  0.72167000  0.65977000  0.37254000  1.0
  C  C727  1  0.69871000  0.62510000  0.37175000  1.0
  C  C728  1  0.68737000  0.61123000  0.40208000  1.0
  C  C729  1  0.69928000  0.63191000  0.43326000  1.0
  C  C730  1  0.71675000  0.66758000  0.43303000  1.0
  C  C731  1  0.72725000  0.68157000  0.40287000  1.0
  C  C732  1  0.75020000  0.67026000  0.34724000  1.0
  C  C733  1  0.77544000  0.64671000  0.33831000  1.0
  C  C734  1  0.81580000  0.65937000  0.33063000  1.0
  C  C735  1  0.83133000  0.69564000  0.33187000  1.0
  C  C736  1  0.80318000  0.71870000  0.33444000  1.0
  C  C737  1  0.76245000  0.70598000  0.34147000  1.0
  C  C738  1  0.87793000  0.70864000  0.34044000  1.0
  C  C739  1  0.90580000  0.69670000  0.32122000  1.0
  C  C740  1  0.94983000  0.70357000  0.33378000  1.0
  C  C741  1  0.96661000  0.72194000  0.36604000  1.0
  C  C742  1  0.93850000  0.73416000  0.38494000  1.0
  C  C743  1  0.89482000  0.72811000  0.37200000  1.0
  C  C744  1  0.33492000  0.70046000  0.45472000  1.0
  C  C745  1  0.36634000  0.72063000  0.48035000  1.0
  C  C746  1  0.40333000  0.70820000  0.49346000  1.0
  C  C747  1  0.40865000  0.67520000  0.48149000  1.0
  C  C748  1  0.37974000  0.65707000  0.45321000  1.0
  C  C749  1  0.34320000  0.66977000  0.43969000  1.0
  C  C750  1  0.29087000  0.70695000  0.44868000  1.0
  C  C751  1  0.27025000  0.70965000  0.47700000  1.0
  C  C752  1  0.22640000  0.70886000  0.47189000  1.0
  C  C753  1  0.20229000  0.70577000  0.43830000  1.0
  C  C754  1  0.22348000  0.70491000  0.40995000  1.0
  C  C755  1  0.26730000  0.70514000  0.41510000  1.0
  C  C756  1  0.15514000  0.70234000  0.43290000  1.0
  C  C757  1  0.13593000  0.72082000  0.45514000  1.0
  C  C758  1  0.09171000  0.71833000  0.44933000  1.0
  C  C759  1  0.06592000  0.69792000  0.42079000  1.0
  C  C760  1  0.08475000  0.67847000  0.39929000  1.0
  C  C761  1  0.12887000  0.68045000  0.40540000  1.0
  C  C762  1  0.30357000  0.66104000  0.63990000  1.0
  C  C763  1  0.29732000  0.63136000  0.61689000  1.0
  C  C764  1  0.33083000  0.62364000  0.60189000  1.0
  C  C765  1  0.37128000  0.64551000  0.60935000  1.0
  C  C766  1  0.37786000  0.67517000  0.63230000  1.0
  C  C767  1  0.34425000  0.68289000  0.64748000  1.0
  C  C768  1  0.26732000  0.66918000  0.65519000  1.0
  C  C769  1  0.23765000  0.64200000  0.66524000  1.0
  C  C770  1  0.20153000  0.64909000  0.67686000  1.0
  C  C771  1  0.19432000  0.68362000  0.67908000  1.0
  C  C772  1  0.22477000  0.71100000  0.67020000  1.0
  C  C773  1  0.26085000  0.70385000  0.65834000  1.0
  C  C774  1  0.15414000  0.69055000  0.68896000  1.0
  C  C775  1  0.13253000  0.71519000  0.67195000  1.0
  C  C776  1  0.09290000  0.71949000  0.67910000  1.0
  C  C777  1  0.07386000  0.69897000  0.70304000  1.0
  C  C778  1  0.09594000  0.67523000  0.72091000  1.0
  C  C779  1  0.13574000  0.67116000  0.71407000  1.0
  C  C780  1  0.35305000  0.48787000  0.63511000  1.0
  C  C781  1  0.39277000  0.50482000  0.65453000  1.0
  C  C782  1  0.42508000  0.52265000  0.63792000  1.0
  C  C783  1  0.41808000  0.52349000  0.60173000  1.0
  C  C784  1  0.37999000  0.50387000  0.58258000  1.0
  C  C785  1  0.34813000  0.48613000  0.59893000  1.0
  C  C786  1  0.31511000  0.47514000  0.65157000  1.0
  C  C787  1  0.27522000  0.48319000  0.63770000  1.0
  C  C788  1  0.23867000  0.47018000  0.65136000  1.0
  C  C789  1  0.24061000  0.44845000  0.67929000  1.0
  C  C790  1  0.28086000  0.44126000  0.69393000  1.0
  C  C791  1  0.31769000  0.45461000  0.68035000  1.0
  C  C792  1  0.20056000  0.43215000  0.69182000  1.0
  C  C793  1  0.20073000  0.42613000  0.72696000  1.0
  C  C794  1  0.16406000  0.40798000  0.73787000  1.0
  C  C795  1  0.12631000  0.39538000  0.71395000  1.0
  C  C796  1  0.12529000  0.40307000  0.67924000  1.0
  C  C797  1  0.16188000  0.42107000  0.66829000  1.0
  C  C798  1  0.38639000  0.46711000  0.47991000  1.0
  C  C799  1  0.41767000  0.47228000  0.51009000  1.0
  C  C800  1  0.44692000  0.50389000  0.51741000  1.0
  C  C801  1  0.44802000  0.53000000  0.49366000  1.0
  C  C802  1  0.42031000  0.52311000  0.46164000  1.0
  C  C803  1  0.38961000  0.49208000  0.45484000  1.0
  C  C804  1  0.34704000  0.43956000  0.47749000  1.0
  C  C805  1  0.32361000  0.42423000  0.44542000  1.0
  C  C806  1  0.28368000  0.40213000  0.44346000  1.0
  C  C807  1  0.26655000  0.39471000  0.47353000  1.0
  C  C808  1  0.29055000  0.40906000  0.50556000  1.0
  C  C809  1  0.33009000  0.43112000  0.50750000  1.0
  C  C810  1  0.22316000  0.37333000  0.47192000  1.0
  C  C811  1  0.21547000  0.34896000  0.49683000  1.0
  C  C812  1  0.17417000  0.33096000  0.49738000  1.0
  C  C813  1  0.13943000  0.33674000  0.47293000  1.0
  C  C814  1  0.14719000  0.36063000  0.44759000  1.0
  C  C815  1  0.18865000  0.37870000  0.44704000  1.0
  O  O816  1  0.11600000  0.10944000  0.04625000  1.0
  O  O817  1  0.04297000  0.10036000  0.03384000  1.0
  O  O818  1  0.99738000  0.08214000  0.02616000  1.0
  O  O819  1  0.18796000  0.05698000  0.08369000  1.0
  O  O820  1  0.94042000  0.08055000  0.98937000  1.0
  O  O821  1  0.24861000  0.08700000  0.10422000  1.0
  O  O822  1  0.19563000  0.11884000  0.99380000  1.0
  O  O823  1  0.25354000  0.14720000  0.02450000  1.0
  O  O824  1  0.04847000  0.10515000  0.11462000  1.0
  O  O825  1  0.11647000  0.09602000  0.13343000  1.0
  O  O826  1  0.93057000  0.13539000  0.09356000  1.0
  O  O827  1  0.87948000  0.12304000  0.05045000  1.0
  O  O828  1  0.28241000  0.08489000  0.04109000  1.0
  O  O829  1  0.22520000  0.04971000  0.01723000  1.0
  O  O830  1  0.10650000  0.02894000  0.03333000  1.0
  O  O831  1  0.03582000  0.01138000  0.03599000  1.0
  O  O832  1  0.15853000  0.11534000  0.06715000  1.0
  O  O833  1  0.21962000  0.15029000  0.08150000  1.0
  O  O834  1  0.96359000  0.06447000  0.07985000  1.0
  O  O835  1  0.90150000  0.05366000  0.04868000  1.0
  O  O836  1  0.92626000  0.14742000  0.00264000  1.0
  O  O837  1  0.98488000  0.16338000  0.03813000  1.0
  O  O838  1  0.03644000  0.02038000  0.11781000  1.0
  O  O839  1  0.10413000  0.01377000  0.11449000  1.0
  O  O840  1  0.61635000  0.59726000  0.53494000  1.0
  O  O841  1  0.54416000  0.59227000  0.53058000  1.0
  O  O842  1  0.49982000  0.57930000  0.52935000  1.0
  O  O843  1  0.69194000  0.54810000  0.57224000  1.0
  O  O844  1  0.43845000  0.58751000  0.50728000  1.0
  O  O845  1  0.75426000  0.57897000  0.58450000  1.0
  O  O846  1  0.67591000  0.58984000  0.47507000  1.0
  O  O847  1  0.73599000  0.62484000  0.49067000  1.0
  O  O848  1  0.55614000  0.59357000  0.61270000  1.0
  O  O849  1  0.62803000  0.59320000  0.62416000  1.0
  O  O850  1  0.44462000  0.65502000  0.59699000  1.0
  O  O851  1  0.40196000  0.60949000  0.57204000  1.0
  O  O852  1  0.77836000  0.57141000  0.51610000  1.0
  O  O853  1  0.72292000  0.53074000  0.50462000  1.0
  O  O854  1  0.60598000  0.51595000  0.52871000  1.0
  O  O855  1  0.53354000  0.50480000  0.52752000  1.0
  O  O856  1  0.66080000  0.60342000  0.55228000  1.0
  O  O857  1  0.72086000  0.63939000  0.55659000  1.0
  O  O858  1  0.48023000  0.56815000  0.58931000  1.0
  O  O859  1  0.41711000  0.57455000  0.56961000  1.0
  O  O860  1  0.42527000  0.62263000  0.50740000  1.0
  O  O861  1  0.46704000  0.66995000  0.52840000  1.0
  O  O862  1  0.54272000  0.50858000  0.61170000  1.0
  O  O863  1  0.61370000  0.50948000  0.61274000  1.0
