# generated using pymatgen
data_Cu2H120C95I4(N8O3)2
_symmetry_space_group_name_H-M   'P 1'
_cell_length_a   34.15750000
_cell_length_b   37.52840000
_cell_length_c   54.84520000
_cell_angle_alpha   89.96000000
_cell_angle_beta   89.31100000
_cell_angle_gamma   64.45800000
_symmetry_Int_Tables_number   1
_chemical_formula_structural   Cu2H120C95I4(N8O3)2
_chemical_formula_sum   'Cu8 H480 C380 I16 N64 O24'
_cell_volume   63428.47005155
_cell_formula_units_Z   4
loop_
 _symmetry_equiv_pos_site_id
 _symmetry_equiv_pos_as_xyz
  1  'x, y, z'
loop_
 _atom_site_type_symbol
 _atom_site_label
 _atom_site_symmetry_multiplicity
 _atom_site_fract_x
 _atom_site_fract_y
 _atom_site_fract_z
 _atom_site_occupancy
  Cu  Cu0  1  0.87229000  0.08940000  0.39021000  1.0
  Cu  Cu1  1  0.06496000  0.44492000  0.36017000  1.0
  Cu  Cu2  1  0.09576000  0.92259000  0.66463000  1.0
  Cu  Cu3  1  0.83876000  0.61287000  0.65065000  1.0
  Cu  Cu4  1  0.32937000  0.11804000  0.88652000  1.0
  Cu  Cu5  1  0.56950000  0.45186000  0.87847000  1.0
  Cu  Cu6  1  0.54134000  0.93519000  0.17469000  1.0
  Cu  Cu7  1  0.36260000  0.56755000  0.16459000  1.0
  H  H8  1  0.87695000  0.17151000  0.38103000  1.0
  H  H9  1  0.96197000  0.05675000  0.35875000  1.0
  H  H10  1  0.99468000  0.10613000  0.34365000  1.0
  H  H11  1  0.78250000  0.09083000  0.37035000  1.0
  H  H12  1  0.80911000  0.17863000  0.40344000  1.0
  H  H13  1  0.72410000  0.20819000  0.39587000  1.0
  H  H14  1  0.94953000  0.03619000  0.42521000  1.0
  H  H15  1  0.82954000  0.13107000  0.44170000  1.0
  H  H16  1  0.87178000  0.10452000  0.48331000  1.0
  H  H17  1  0.87562000  0.00991000  0.41206000  1.0
  H  H18  1  0.90721000  0.94316000  0.38628000  1.0
  H  H19  1  0.90540000  0.03484000  0.34157000  1.0
  H  H20  1  0.05383000  0.36487000  0.35644000  1.0
  H  H21  1  0.96020000  0.48283000  0.35887000  1.0
  H  H22  1  0.91916000  0.43632000  0.35604000  1.0
  H  H23  1  0.14153000  0.39576000  0.32127000  1.0
  H  H24  1  0.12403000  0.37469000  0.39482000  1.0
  H  H25  1  0.19600000  0.31478000  0.37817000  1.0
  H  H26  1  0.00001000  0.47762000  0.40660000  1.0
  H  H27  1  0.12073000  0.47785000  0.39162000  1.0
  H  H28  1  0.09300000  0.51114000  0.43534000  1.0
  H  H29  1  0.07189000  0.44416000  0.30137000  1.0
  H  H30  1  0.06109000  0.50937000  0.27706000  1.0
  H  H31  1  0.04674000  0.53522000  0.35221000  1.0
  H  H32  1  0.07650000  0.84742000  0.66485000  1.0
  H  H33  1  0.99431000  0.96513000  0.68279000  1.0
  H  H34  1  0.94896000  0.92251000  0.68709000  1.0
  H  H35  1  0.19267000  0.91144000  0.67209000  1.0
  H  H36  1  0.11640000  0.87047000  0.71326000  1.0
  H  H37  1  0.19008000  0.85275000  0.73694000  1.0
  H  H38  1  0.06147000  0.95964000  0.61336000  1.0
  H  H39  1  0.16624000  0.85212000  0.63056000  1.0
  H  H40  1  0.16034000  0.85789000  0.58195000  1.0
  H  H41  1  0.12241000  0.98544000  0.64089000  1.0
  H  H42  1  0.10260000  0.05497000  0.66192000  1.0
  H  H43  1  0.04396000  0.99530000  0.70220000  1.0
  H  H44  1  0.87931000  0.67389000  0.64601000  1.0
  H  H45  1  0.90901000  0.58015000  0.69504000  1.0
  H  H46  1  0.95831000  0.61713000  0.70546000  1.0
  H  H47  1  0.74780000  0.63727000  0.68004000  1.0
  H  H48  1  0.79168000  0.70319000  0.63480000  1.0
  H  H49  1  0.71123000  0.75019000  0.64998000  1.0
  H  H50  1  0.91823000  0.58024000  0.61136000  1.0
  H  H51  1  0.78321000  0.63221000  0.60209000  1.0
  H  H52  1  0.82113000  0.61507000  0.55808000  1.0
  H  H53  1  0.77012000  0.57833000  0.64943000  1.0
  H  H54  1  0.78635000  0.50645000  0.66538000  1.0
  H  H55  1  0.89626000  0.52710000  0.67727000  1.0
  H  H56  1  0.33701000  0.20074000  0.88084000  1.0
  H  H57  1  0.43230000  0.08339000  0.87917000  1.0
  H  H58  1  0.47144000  0.13088000  0.87263000  1.0
  H  H59  1  0.26576000  0.16884000  0.84404000  1.0
  H  H60  1  0.24854000  0.17483000  0.92008000  1.0
  H  H61  1  0.17637000  0.22873000  0.90017000  1.0
  H  H62  1  0.39748000  0.08936000  0.93075000  1.0
  H  H63  1  0.27412000  0.09164000  0.92396000  1.0
  H  H64  1  0.30458000  0.06314000  0.96792000  1.0
  H  H65  1  0.30442000  0.04484000  0.87805000  1.0
  H  H66  1  0.32913000  0.00169000  0.83713000  1.0
  H  H67  1  0.37421000  0.08982000  0.83435000  1.0
  H  H68  1  0.55813000  0.37101000  0.87895000  1.0
  H  H69  1  0.47070000  0.48652000  0.86058000  1.0
  H  H70  1  0.43056000  0.43964000  0.85552000  1.0
  H  H71  1  0.64394000  0.38915000  0.84460000  1.0
  H  H72  1  0.63701000  0.40366000  0.92062000  1.0
  H  H73  1  0.71352000  0.34428000  0.90898000  1.0
  H  H74  1  0.49165000  0.48679000  0.91844000  1.0
  H  H75  1  0.61220000  0.49142000  0.91449000  1.0
  H  H76  1  0.57120000  0.52882000  0.95505000  1.0
  H  H77  1  0.59336000  0.44558000  0.82119000  1.0
  H  H78  1  0.60261000  0.50429000  0.79846000  1.0
  H  H79  1  0.56285000  0.53893000  0.87091000  1.0
  H  H80  1  0.53205000  0.85699000  0.15857000  1.0
  H  H81  1  0.45167000  0.95263000  0.20266000  1.0
  H  H82  1  0.41716000  0.90098000  0.20096000  1.0
  H  H83  1  0.64561000  0.90873000  0.17023000  1.0
  H  H84  1  0.56943000  0.88773000  0.22362000  1.0
  H  H85  1  0.65027000  0.85981000  0.23961000  1.0
  H  H86  1  0.48584000  0.98353000  0.12953000  1.0
  H  H87  1  0.61614000  0.90035000  0.13242000  1.0
  H  H88  1  0.59825000  0.92429000  0.08640000  1.0
  H  H89  1  0.49554000  0.03088000  0.16378000  1.0
  H  H90  1  0.47384000  0.08150000  0.20137000  1.0
  H  H91  1  0.52892000  0.96556000  0.22854000  1.0
  H  H92  1  0.38717000  0.63929000  0.15525000  1.0
  H  H93  1  0.41239000  0.56319000  0.21512000  1.0
  H  H94  1  0.44314000  0.61606000  0.22482000  1.0
  H  H95  1  0.25732000  0.60716000  0.16090000  1.0
  H  H96  1  0.34139000  0.54095000  0.21599000  1.0
  H  H97  1  0.26041000  0.55670000  0.22973000  1.0
  H  H98  1  0.39976000  0.54704000  0.11044000  1.0
  H  H99  1  0.28866000  0.64317000  0.13703000  1.0
  H  H100  1  0.29343000  0.65099000  0.08880000  1.0
  H  H101  1  0.37447000  0.49696000  0.12863000  1.0
  H  H102  1  0.41728000  0.42223000  0.14246000  1.0
  H  H103  1  0.42821000  0.49598000  0.19704000  1.0
  H  H104  1  0.96663000  0.71784000  0.22499000  1.0
  H  H105  1  0.96225000  0.75714000  0.20463000  1.0
  H  H106  1  0.99547000  0.75893000  0.27045000  1.0
  H  H107  1  0.94212000  0.78190000  0.28273000  1.0
  H  H108  1  0.87871000  0.79702000  0.25809000  1.0
  H  H109  1  0.89564000  0.75145000  0.24277000  1.0
  H  H110  1  0.93656000  0.82527000  0.21920000  1.0
  H  H111  1  0.98145000  0.81065000  0.23888000  1.0
  H  H112  1  0.93992000  0.33500000  0.78103000  1.0
  H  H113  1  0.98400000  0.31620000  0.76055000  1.0
  H  H114  1  0.88652000  0.28874000  0.75869000  1.0
  H  H115  1  0.91521000  0.24510000  0.77658000  1.0
  H  H116  1  0.98730000  0.22439000  0.78980000  1.0
  H  H117  1  0.97932000  0.26983000  0.80329000  1.0
  H  H118  1  0.99850000  0.25606000  0.73426000  1.0
  H  H119  1  0.94459000  0.26878000  0.72641000  1.0
  H  H120  1  0.50115000  0.75443000  0.73907000  1.0
  H  H121  1  0.50412000  0.79730000  0.72827000  1.0
  H  H122  1  0.52270000  0.77845000  0.79507000  1.0
  H  H123  1  0.46740000  0.79745000  0.80527000  1.0
  H  H124  1  0.40818000  0.81616000  0.77620000  1.0
  H  H125  1  0.43162000  0.77551000  0.75625000  1.0
  H  H126  1  0.46284000  0.86033000  0.75003000  1.0
  H  H127  1  0.50558000  0.84346000  0.77060000  1.0
  H  H128  1  0.45248000  0.30457000  0.28504000  1.0
  H  H129  1  0.50681000  0.28381000  0.27507000  1.0
  H  H130  1  0.42099000  0.24741000  0.25549000  1.0
  H  H131  1  0.43829000  0.20942000  0.27824000  1.0
  H  H132  1  0.49702000  0.19755000  0.30457000  1.0
  H  H133  1  0.48052000  0.24780000  0.31467000  1.0
  H  H134  1  0.54052000  0.21582000  0.25433000  1.0
  H  H135  1  0.49411000  0.22210000  0.23659000  1.0
  H  H136  1  0.95117000  0.96456000  0.32590000  1.0
  H  H137  1  0.95975000  0.92537000  0.34708000  1.0
  H  H138  1  0.86011000  0.93946000  0.35148000  1.0
  H  H139  1  0.90682000  0.89284000  0.34858000  1.0
  H  H140  1  0.95342000  0.91999000  0.29191000  1.0
  H  H141  1  0.96157000  0.88132000  0.31324000  1.0
  H  H142  1  0.91107000  0.84671000  0.31342000  1.0
  H  H143  1  0.86755000  0.86111000  0.29216000  1.0
  H  H144  1  0.83962000  0.88941000  0.33333333  1.0
  H  H145  1  0.80217000  0.92819000  0.29635000  1.0
  H  H146  1  0.79929000  0.96050000  0.32104000  1.0
  H  H147  1  0.89112000  0.94121000  0.26135000  1.0
  H  H148  1  0.85573000  0.91721000  0.26127000  1.0
  H  H149  1  0.82000000  0.98311000  0.28185000  1.0
  H  H150  1  0.88718000  0.98730000  0.29652000  1.0
  H  H151  1  0.84897000  0.99545000  0.32098000  1.0
  H  H152  1  0.95662000  0.87530000  0.25676000  1.0
  H  H153  1  0.96706000  0.83670000  0.27911000  1.0
  H  H154  1  0.05554000  0.58740000  0.32390000  1.0
  H  H155  1  0.06411000  0.57609000  0.29182000  1.0
  H  H156  1  0.98096000  0.56305000  0.28111000  1.0
  H  H157  1  0.00024000  0.59273000  0.26360000  1.0
  H  H158  1  0.00394000  0.65643000  0.31668000  1.0
  H  H159  1  0.01362000  0.64776000  0.28457000  1.0
  H  H160  1  0.94917000  0.66486000  0.25551000  1.0
  H  H161  1  0.89486000  0.68563000  0.26754000  1.0
  H  H162  1  0.92063000  0.61383000  0.25777000  1.0
  H  H163  1  0.86853000  0.64295000  0.29291000  1.0
  H  H164  1  0.90430000  0.59226000  0.29852000  1.0
  H  H165  1  0.92606000  0.68544000  0.33403000  1.0
  H  H166  1  0.88119000  0.69762000  0.31392000  1.0
  H  H167  1  0.89754000  0.63421000  0.33549000  1.0
  H  H168  1  0.97691000  0.61334000  0.34209000  1.0
  H  H169  1  0.96716000  0.57522000  0.32754000  1.0
  H  H170  1  0.90638000  0.74041000  0.28974000  1.0
  H  H171  1  0.95282000  0.72784000  0.30937000  1.0
  H  H172  1  0.04412000  0.05622000  0.72271000  1.0
  H  H173  1  0.07871000  0.07574000  0.70883000  1.0
  H  H174  1  0.02834000  0.10658000  0.65941000  1.0
  H  H175  1  0.04828000  0.13315000  0.67901000  1.0
  H  H176  1  0.99149000  0.12192000  0.73670000  1.0
  H  H177  1  0.02620000  0.14239000  0.72449000  1.0
  H  H178  1  0.99556000  0.20116000  0.69486000  1.0
  H  H179  1  0.93948000  0.22154000  0.68666000  1.0
  H  H180  1  0.98699000  0.17866000  0.65323000  1.0
  H  H181  1  0.91231000  0.18216000  0.65917000  1.0
  H  H182  1  0.94942000  0.13450000  0.64800000  1.0
  H  H183  1  0.91139000  0.15036000  0.72449000  1.0
  H  H184  1  0.88982000  0.19134000  0.70401000  1.0
  H  H185  1  0.90365000  0.12830000  0.68251000  1.0
  H  H186  1  0.96402000  0.08250000  0.70875000  1.0
  H  H187  1  0.97926000  0.07597000  0.67711000  1.0
  H  H188  1  0.91397000  0.22942000  0.73199000  1.0
  H  H189  1  0.93779000  0.18871000  0.75199000  1.0
  H  H190  1  0.85962000  0.44520000  0.67340000  1.0
  H  H191  1  0.90645000  0.45314000  0.68032000  1.0
  H  H192  1  0.88378000  0.50400000  0.72455000  1.0
  H  H193  1  0.92732000  0.45538000  0.72257000  1.0
  H  H194  1  0.85698000  0.40360000  0.70577000  1.0
  H  H195  1  0.91148000  0.39631000  0.71141000  1.0
  H  H196  1  0.93423000  0.40400000  0.75488000  1.0
  H  H197  1  0.89556000  0.41658000  0.77951000  1.0
  H  H198  1  0.90683000  0.47540000  0.76610000  1.0
  H  H199  1  0.83345000  0.48583000  0.78217000  1.0
  H  H200  1  0.82861000  0.52186000  0.75950000  1.0
  H  H201  1  0.80087000  0.42271000  0.74099000  1.0
  H  H202  1  0.81674000  0.42790000  0.77130000  1.0
  H  H203  1  0.77481000  0.49380000  0.75246000  1.0
  H  H204  1  0.79408000  0.47360000  0.70878000  1.0
  H  H205  1  0.80486000  0.51484000  0.71687000  1.0
  H  H206  1  0.87306000  0.35996000  0.76836000  1.0
  H  H207  1  0.86163000  0.35393000  0.73773000  1.0
  H  H208  1  0.35559000  0.01906000  0.79300000  1.0
  H  H209  1  0.38006000  0.05262000  0.79443000  1.0
  H  H210  1  0.45305000  0.02059000  0.78047000  1.0
  H  H211  1  0.43227000  0.99058000  0.76487000  1.0
  H  H212  1  0.40157000  0.95034000  0.82197000  1.0
  H  H213  1  0.40159000  0.94939000  0.78931000  1.0
  H  H214  1  0.47416000  0.91676000  0.76525000  1.0
  H  H215  1  0.52430000  0.89354000  0.78154000  1.0
  H  H216  1  0.51351000  0.95887000  0.76484000  1.0
  H  H217  1  0.55340000  0.93584000  0.80418000  1.0
  H  H218  1  0.52399000  0.98857000  0.80381000  1.0
  H  H219  1  0.47336000  0.91839000  0.84504000  1.0
  H  H220  1  0.52367000  0.89466000  0.82855000  1.0
  H  H221  1  0.51309000  0.96098000  0.84373000  1.0
  H  H222  1  0.43266000  0.99279000  0.84473000  1.0
  H  H223  1  0.45280000  0.02225000  0.82758000  1.0
  H  H224  1  0.49471000  0.85128000  0.81029000  1.0
  H  H225  1  0.44218000  0.87666000  0.82269000  1.0
  H  H226  1  0.59041000  0.58257000  0.84716000  1.0
  H  H227  1  0.61529000  0.56463000  0.81784000  1.0
  H  H228  1  0.53514000  0.56499000  0.79009000  1.0
  H  H229  1  0.57145000  0.58472000  0.77921000  1.0
  H  H230  1  0.55695000  0.65186000  0.83403000  1.0
  H  H231  1  0.58392000  0.63635000  0.80509000  1.0
  H  H232  1  0.54051000  0.65658000  0.76554000  1.0
  H  H233  1  0.48305000  0.68629000  0.76667000  1.0
  H  H234  1  0.49945000  0.61599000  0.75866000  1.0
  H  H235  1  0.43234000  0.65782000  0.78297000  1.0
  H  H236  1  0.45419000  0.60737000  0.79260000  1.0
  H  H237  1  0.47449000  0.69436000  0.83620000  1.0
  H  H238  1  0.44388000  0.70881000  0.80870000  1.0
  H  H239  1  0.43433000  0.65326000  0.82872000  1.0
  H  H240  1  0.50587000  0.62258000  0.84998000  1.0
  H  H241  1  0.49683000  0.58697000  0.83206000  1.0
  H  H242  1  0.52320000  0.72419000  0.82081000  1.0
  H  H243  1  0.55415000  0.70705000  0.79261000  1.0
  H  H244  1  0.46264000  0.06974000  0.24992000  1.0
  H  H245  1  0.49150000  0.01989000  0.26020000  1.0
  H  H246  1  0.53658000  0.02238000  0.29241000  1.0
  H  H247  1  0.50010000  0.07386000  0.29287000  1.0
  H  H248  1  0.52526000  0.09487000  0.22810000  1.0
  H  H249  1  0.49295000  0.11637000  0.25480000  1.0
  H  H250  1  0.52990000  0.12482000  0.29414000  1.0
  H  H251  1  0.58723000  0.10997000  0.29399000  1.0
  H  H252  1  0.56822000  0.06069000  0.31548000  1.0
  H  H253  1  0.63942000  0.03680000  0.29275000  1.0
  H  H254  1  0.61855000  0.00043000  0.29210000  1.0
  H  H255  1  0.60740000  0.07285000  0.22833000  1.0
  H  H256  1  0.63302000  0.07921000  0.25523000  1.0
  H  H257  1  0.64524000  0.00881000  0.25057000  1.0
  H  H258  1  0.57864000  0.02087000  0.22747000  1.0
  H  H259  1  0.58255000  0.99101000  0.25371000  1.0
  H  H260  1  0.58250000  0.15109000  0.25630000  1.0
  H  H261  1  0.55431000  0.14686000  0.22936000  1.0
  H  H262  1  0.46479000  0.38615000  0.17805000  1.0
  H  H263  1  0.48303000  0.41349000  0.19783000  1.0
  H  H264  1  0.41763000  0.46383000  0.23041000  1.0
  H  H265  1  0.46163000  0.41901000  0.23999000  1.0
  H  H266  1  0.43296000  0.35059000  0.20030000  1.0
  H  H267  1  0.47077000  0.35241000  0.22209000  1.0
  H  H268  1  0.44663000  0.37078000  0.26671000  1.0
  H  H269  1  0.39211000  0.38177000  0.27601000  1.0
  H  H270  1  0.40207000  0.44368000  0.27131000  1.0
  H  H271  1  0.32936000  0.44569000  0.26192000  1.0
  H  H272  1  0.34012000  0.47946000  0.24299000  1.0
  H  H273  1  0.35409000  0.36743000  0.21334000  1.0
  H  H274  1  0.33744000  0.38005000  0.24448000  1.0
  H  H275  1  0.31076000  0.44019000  0.21833000  1.0
  H  H276  1  0.36966000  0.41489000  0.18636000  1.0
  H  H277  1  0.36254000  0.46155000  0.19870000  1.0
  H  H278  1  0.39865000  0.31713000  0.25870000  1.0
  H  H279  1  0.41094000  0.30496000  0.22751000  1.0
  H  H280  1  0.91284000  0.01235000  0.49005000  1.0
  H  H281  1  0.95161000  0.98389000  0.46724000  1.0
  H  H282  1  0.95254000  0.05620000  0.49380000  1.0
  H  H283  1  0.98759000  0.02860000  0.46865000  1.0
  H  H284  1  0.02733000  0.94097000  0.47851000  1.0
  H  H285  1  0.93428000  0.01132000  0.53290000  1.0
  H  H286  1  0.11721000  0.91970000  0.55245000  1.0
  H  H287  1  0.07309000  0.96202000  0.56664000  1.0
  H  H288  1  0.00764000  0.45924000  0.45893000  1.0
  H  H289  1  0.05438000  0.46332000  0.47045000  1.0
  H  H290  1  0.97600000  0.52841000  0.44501000  1.0
  H  H291  1  0.01929000  0.53653000  0.45915000  1.0
  H  H292  1  0.05233000  0.49001000  0.51054000  1.0
  H  H293  1  0.93317000  0.50280000  0.47770000  1.0
  H  H294  1  0.94095000  0.58607000  0.56434000  1.0
  H  H295  1  0.89926000  0.59378000  0.54195000  1.0
  H  H296  1  0.38764000  0.00105000  0.97602000  1.0
  H  H297  1  0.43363000  0.00279000  0.96110000  1.0
  H  H298  1  0.36884000  0.06906000  0.99417000  1.0
  H  H299  1  0.41335000  0.07062000  0.97648000  1.0
  H  H300  1  0.49766000  0.99442000  0.98466000  1.0
  H  H301  1  0.38358000  0.99860000  0.02125000  1.0
  H  H302  1  0.52730000  0.99695000  0.07057000  1.0
  H  H303  1  0.47687000  0.00174000  0.08471000  1.0
  H  H304  1  0.36826000  0.64538000  0.05944000  1.0
  H  H305  1  0.41451000  0.61120000  0.07552000  1.0
  H  H306  1  0.34010000  0.59651000  0.05359000  1.0
  H  H307  1  0.39007000  0.55672000  0.06402000  1.0
  H  H308  1  0.47792000  0.56563000  0.05382000  1.0
  H  H309  1  0.36108000  0.63328000  0.01432000  1.0
  H  H310  1  0.49754000  0.50647000  0.97692000  1.0
  H  H311  1  0.45562000  0.53341000  0.95535000  1.0
  H  H312  1  0.94101000  0.19617000  0.39687000  1.0
  H  H313  1  0.99430000  0.16849000  0.38441000  1.0
  H  H314  1  0.91113000  0.21219000  0.35447000  1.0
  H  H315  1  0.96529000  0.18348000  0.34200000  1.0
  H  H316  1  0.03593000  0.20226000  0.36842000  1.0
  H  H317  1  0.90245000  0.26935000  0.39021000  1.0
  H  H318  1  0.99897000  0.33348000  0.34035000  1.0
  H  H319  1  0.94245000  0.36196000  0.34936000  1.0
  H  H320  1  0.88289000  0.72888000  0.68956000  1.0
  H  H321  1  0.92293000  0.70367000  0.71196000  1.0
  H  H322  1  0.93955000  0.69674000  0.65624000  1.0
  H  H323  1  0.97792000  0.66934000  0.67964000  1.0
  H  H324  1  0.99029000  0.71681000  0.71410000  1.0
  H  H325  1  0.87931000  0.78861000  0.67137000  1.0
  H  H326  1  0.02831000  0.81237000  0.67437000  1.0
  H  H327  1  0.98094000  0.84344000  0.65723000  1.0
  H  H328  1  0.38915000  0.23834000  0.90862000  1.0
  H  H329  1  0.44474000  0.20280000  0.90807000  1.0
  H  H330  1  0.38464000  0.23656000  0.86405000  1.0
  H  H331  1  0.44266000  0.20612000  0.86124000  1.0
  H  H332  1  0.50146000  0.22360000  0.90191000  1.0
  H  H333  1  0.36913000  0.30561000  0.88849000  1.0
  H  H334  1  0.51383000  0.33275000  0.86149000  1.0
  H  H335  1  0.45733000  0.36311000  0.85400000  1.0
  H  H336  1  0.49461000  0.64304000  0.19935000  1.0
  H  H337  1  0.48872000  0.64166000  0.16700000  1.0
  H  H338  1  0.41660000  0.69058000  0.20395000  1.0
  H  H339  1  0.41012000  0.69119000  0.17117000  1.0
  H  H340  1  0.49156000  0.69340000  0.14181000  1.0
  H  H341  1  0.48126000  0.70824000  0.21981000  1.0
  H  H342  1  0.45587000  0.83445000  0.15278000  1.0
  H  H343  1  0.44004000  0.83181000  0.18407000  1.0
  H  H344  1  0.71586000  0.89038000  0.19283000  1.0
  H  H345  1  0.71328000  0.88194000  0.22495000  1.0
  H  H346  1  0.70509000  0.80096000  0.22265000  1.0
  H  H347  1  0.74059000  0.81228000  0.24171000  1.0
  H  H348  1  0.79347000  0.84470000  0.18992000  1.0
  H  H349  1  0.79288000  0.83782000  0.22224000  1.0
  H  H350  1  0.82117000  0.76784000  0.23985000  1.0
  H  H351  1  0.84254000  0.72571000  0.21988000  1.0
  H  H352  1  0.76788000  0.73954000  0.23461000  1.0
  H  H353  1  0.79057000  0.71140000  0.19245000  1.0
  H  H354  1  0.73355000  0.74296000  0.19388000  1.0
  H  H355  1  0.82197000  0.78480000  0.16091000  1.0
  H  H356  1  0.84232000  0.73588000  0.17309000  1.0
  H  H357  1  0.76770000  0.75718000  0.15654000  1.0
  H  H358  1  0.74092000  0.83020000  0.16287000  1.0
  H  H359  1  0.70441000  0.81266000  0.17622000  1.0
  H  H360  1  0.89525000  0.74902000  0.20192000  1.0
  H  H361  1  0.87686000  0.79291000  0.18477000  1.0
  H  H362  1  0.18703000  0.60251000  0.17502000  1.0
  H  H363  1  0.18894000  0.57766000  0.20339000  1.0
  H  H364  1  0.21463000  0.63290000  0.23746000  1.0
  H  H365  1  0.17418000  0.61561000  0.24389000  1.0
  H  H366  1  0.11233000  0.65235000  0.18483000  1.0
  H  H367  1  0.11364000  0.62743000  0.21289000  1.0
  H  H368  1  0.09651000  0.66560000  0.25348000  1.0
  H  H369  1  0.08314000  0.71730000  0.25382000  1.0
  H  H370  1  0.15955000  0.67800000  0.26674000  1.0
  H  H371  1  0.14093000  0.74122000  0.24386000  1.0
  H  H372  1  0.19545000  0.70608000  0.23711000  1.0
  H  H373  1  0.09335000  0.72646000  0.18492000  1.0
  H  H374  1  0.08121000  0.75342000  0.21311000  1.0
  H  H375  1  0.15649000  0.73814000  0.19879000  1.0
  H  H376  1  0.17099000  0.67632000  0.17525000  1.0
  H  H377  1  0.21294000  0.66849000  0.19679000  1.0
  H  H378  1  0.03563000  0.70264000  0.19408000  1.0
  H  H379  1  0.03810000  0.67543000  0.22187000  1.0
  H  H380  1  0.15949000  0.26062000  0.85678000  1.0
  H  H381  1  0.19861000  0.23685000  0.83281000  1.0
  H  H382  1  0.20075000  0.15233000  0.83489000  1.0
  H  H383  1  0.19577000  0.18113000  0.80803000  1.0
  H  H384  1  0.09731000  0.27232000  0.83042000  1.0
  H  H385  1  0.13457000  0.25185000  0.80541000  1.0
  H  H386  1  0.13209000  0.19577000  0.77958000  1.0
  H  H387  1  0.09324000  0.17685000  0.78660000  1.0
  H  H388  1  0.16624000  0.13127000  0.80173000  1.0
  H  H389  1  0.10016000  0.13704000  0.82528000  1.0
  H  H390  1  0.14481000  0.12690000  0.84524000  1.0
  H  H391  1  0.04119000  0.24572000  0.84072000  1.0
  H  H392  1  0.03957000  0.20631000  0.82297000  1.0
  H  H393  1  0.07639000  0.18093000  0.86236000  1.0
  H  H394  1  0.10499000  0.23141000  0.86923000  1.0
  H  H395  1  0.14711000  0.18207000  0.87111000  1.0
  H  H396  1  0.03205000  0.28690000  0.80217000  1.0
  H  H397  1  0.07226000  0.26992000  0.77914000  1.0
  H  H398  1  0.74147000  0.30062000  0.86839000  1.0
  H  H399  1  0.71144000  0.32111000  0.84110000  1.0
  H  H400  1  0.71718000  0.40590000  0.84793000  1.0
  H  H401  1  0.72118000  0.38023000  0.81976000  1.0
  H  H402  1  0.80768000  0.28131000  0.84078000  1.0
  H  H403  1  0.77469000  0.30699000  0.81557000  1.0
  H  H404  1  0.78947000  0.36055000  0.79298000  1.0
  H  H405  1  0.83243000  0.37210000  0.80309000  1.0
  H  H406  1  0.76071000  0.42311000  0.81748000  1.0
  H  H407  1  0.82657000  0.40736000  0.84314000  1.0
  H  H408  1  0.77891000  0.42129000  0.86190000  1.0
  H  H409  1  0.86974000  0.29751000  0.85457000  1.0
  H  H410  1  0.88017000  0.33461000  0.83901000  1.0
  H  H411  1  0.84055000  0.36089000  0.87845000  1.0
  H  H412  1  0.80167000  0.31762000  0.88143000  1.0
  H  H413  1  0.76471000  0.36878000  0.88440000  1.0
  H  H414  1  0.87407000  0.26109000  0.81455000  1.0
  H  H415  1  0.83863000  0.28689000  0.78984000  1.0
  H  H416  1  0.25013000  0.90511000  0.70339000  1.0
  H  H417  1  0.24457000  0.88719000  0.73306000  1.0
  H  H418  1  0.25831000  0.80129000  0.71795000  1.0
  H  H419  1  0.28320000  0.81406000  0.74297000  1.0
  H  H420  1  0.33043000  0.87195000  0.70506000  1.0
  H  H421  1  0.32595000  0.85567000  0.73526000  1.0
  H  H422  1  0.36455000  0.78225000  0.74594000  1.0
  H  H423  1  0.39792000  0.74699000  0.72353000  1.0
  H  H424  1  0.32668000  0.74417000  0.72922000  1.0
  H  H425  1  0.36140000  0.73009000  0.68752000  1.0
  H  H426  1  0.30342000  0.75283000  0.68548000  1.0
  H  H427  1  0.37576000  0.82179000  0.67217000  1.0
  H  H428  1  0.40374000  0.77049000  0.67964000  1.0
  H  H429  1  0.33643000  0.78414000  0.65627000  1.0
  H  H430  1  0.29334000  0.85459000  0.66935000  1.0
  H  H431  1  0.26367000  0.82581000  0.67454000  1.0
  H  H432  1  0.44129000  0.78580000  0.71574000  1.0
  H  H433  1  0.41676000  0.83416000  0.70416000  1.0
  H  H434  1  0.64955000  0.73684000  0.66991000  1.0
  H  H435  1  0.66276000  0.68774000  0.68068000  1.0
  H  H436  1  0.73076000  0.67469000  0.71941000  1.0
  H  H437  1  0.68138000  0.66963000  0.72396000  1.0
  H  H438  1  0.60595000  0.77387000  0.70417000  1.0
  H  H439  1  0.60788000  0.72812000  0.71506000  1.0
  H  H440  1  0.63053000  0.70634000  0.75922000  1.0
  H  H441  1  0.64403000  0.73718000  0.77907000  1.0
  H  H442  1  0.71090000  0.68001000  0.76355000  1.0
  H  H443  1  0.71424000  0.74445000  0.77198000  1.0
  H  H444  1  0.74999000  0.71860000  0.74726000  1.0
  H  H445  1  0.62654000  0.81775000  0.73238000  1.0
  H  H446  1  0.64190000  0.80290000  0.76319000  1.0
  H  H447  1  0.70694000  0.79034000  0.73713000  1.0
  H  H448  1  0.67711000  0.78120000  0.69729000  1.0
  H  H449  1  0.72834000  0.74071000  0.70375000  1.0
  H  H450  1  0.57305000  0.79783000  0.77000000  1.0
  H  H451  1  0.55725000  0.81178000  0.73890000  1.0
  H  H452  1  0.69823000  0.12305000  0.37578000  1.0
  H  H453  1  0.67406000  0.17138000  0.38951000  1.0
  H  H454  1  0.71266000  0.21009000  0.34708000  1.0
  H  H455  1  0.66025000  0.23320000  0.36163000  1.0
  H  H456  1  0.62946000  0.14843000  0.35046000  1.0
  H  H457  1  0.61106000  0.19688000  0.36339000  1.0
  H  H458  1  0.59250000  0.25705000  0.33554000  1.0
  H  H459  1  0.59771000  0.25058000  0.30310000  1.0
  H  H460  1  0.66010000  0.26013000  0.31976000  1.0
  H  H461  1  0.67254000  0.21635000  0.28301000  1.0
  H  H462  1  0.72017000  0.19964000  0.30135000  1.0
  H  H463  1  0.63727000  0.13864000  0.30412000  1.0
  H  H464  1  0.62416000  0.18026000  0.28445000  1.0
  H  H465  1  0.70449000  0.14278000  0.28870000  1.0
  H  H466  1  0.70513000  0.11472000  0.33025000  1.0
  H  H467  1  0.73937000  0.13983000  0.32894000  1.0
  H  H468  1  0.56285000  0.17168000  0.32434000  1.0
  H  H469  1  0.54478000  0.21987000  0.33862000  1.0
  H  H470  1  0.22134000  0.29007000  0.33305000  1.0
  H  H471  1  0.20017000  0.32566000  0.30896000  1.0
  H  H472  1  0.22532000  0.39128000  0.32938000  1.0
  H  H473  1  0.23445000  0.37211000  0.29886000  1.0
  H  H474  1  0.29558000  0.26421000  0.31661000  1.0
  H  H475  1  0.27603000  0.29730000  0.29136000  1.0
  H  H476  1  0.31113000  0.34370000  0.28044000  1.0
  H  H477  1  0.35514000  0.34304000  0.29818000  1.0
  H  H478  1  0.28595000  0.40112000  0.30937000  1.0
  H  H479  1  0.34195000  0.36954000  0.34164000  1.0
  H  H480  1  0.28829000  0.38951000  0.35459000  1.0
  H  H481  1  0.35864000  0.26306000  0.34222000  1.0
  H  H482  1  0.38337000  0.29525000  0.33478000  1.0
  H  H483  1  0.33333333  0.32129000  0.37055000  1.0
  H  H484  1  0.28229000  0.29152000  0.36064000  1.0
  H  H485  1  0.25400000  0.34374000  0.36590000  1.0
  H  H486  1  0.36932000  0.23591000  0.29818000  1.0
  H  H487  1  0.35147000  0.27031000  0.27292000  1.0
  C  C488  1  0.92303000  0.05879000  0.43533000  1.0
  C  C489  1  0.86162000  0.10726000  0.44361000  1.0
  C  C490  1  0.88343000  0.09356000  0.46512000  1.0
  C  C491  1  0.88405000  0.00684000  0.39285000  1.0
  C  C492  1  0.90026000  0.97235000  0.37948000  1.0
  C  C493  1  0.89911000  0.01943000  0.35672000  1.0
  C  C494  1  0.90381000  0.14723000  0.37226000  1.0
  C  C495  1  0.94716000  0.08851000  0.36097000  1.0
  C  C496  1  0.96413000  0.11399000  0.35321000  1.0
  C  C497  1  0.77834000  0.11925000  0.37735000  1.0
  C  C498  1  0.79216000  0.16393000  0.39438000  1.0
  C  C499  1  0.74825000  0.17922000  0.39043000  1.0
  C  C500  1  0.02883000  0.48256000  0.40841000  1.0
  C  C501  1  0.09056000  0.48256000  0.40067000  1.0
  C  C502  1  0.07626000  0.49973000  0.42323000  1.0
  C  C503  1  0.06475000  0.47279000  0.30919000  1.0
  C  C504  1  0.05891000  0.50652000  0.29663000  1.0
  C  C505  1  0.05172000  0.51949000  0.33505000  1.0
  C  C506  1  0.02278000  0.39058000  0.35651000  1.0
  C  C507  1  0.97507000  0.45092000  0.35779000  1.0
  C  C508  1  0.95391000  0.42692000  0.35629000  1.0
  C  C509  1  0.14747000  0.38261000  0.33922000  1.0
  C  C510  1  0.13827000  0.37189000  0.37679000  1.0
  C  C511  1  0.17545000  0.34101000  0.36820000  1.0
  C  C512  1  0.08951000  0.93146000  0.61133000  1.0
  C  C513  1  0.14304000  0.87655000  0.62028000  1.0
  C  C514  1  0.14000000  0.87954000  0.59519000  1.0
  C  C515  1  0.10027000  0.99800000  0.65613000  1.0
  C  C516  1  0.09004000  0.03396000  0.66703000  1.0
  C  C517  1  0.05991000  0.00333000  0.68744000  1.0
  C  C518  1  0.04823000  0.87335000  0.67093000  1.0
  C  C519  1  0.00643000  0.93361000  0.68002000  1.0
  C  C520  1  0.98300000  0.91157000  0.68225000  1.0
  C  C521  1  0.18338000  0.89549000  0.68569000  1.0
  C  C522  1  0.14405000  0.87479000  0.70672000  1.0
  C  C523  1  0.18211000  0.86574000  0.71898000  1.0
  C  C524  1  0.88674000  0.59229000  0.60282000  1.0
  C  C525  1  0.81771000  0.61882000  0.59818000  1.0
  C  C526  1  0.83728000  0.61000000  0.57548000  1.0
  C  C527  1  0.79916000  0.55819000  0.65854000  1.0
  C  C528  1  0.80756000  0.52103000  0.66675000  1.0
  C  C529  1  0.86350000  0.53199000  0.67296000  1.0
  C  C530  1  0.89486000  0.65292000  0.66040000  1.0
  C  C531  1  0.90985000  0.60489000  0.68535000  1.0
  C  C532  1  0.93525000  0.62410000  0.69080000  1.0
  C  C533  1  0.74895000  0.66173000  0.67009000  1.0
  C  C534  1  0.77151000  0.69527000  0.64692000  1.0
  C  C535  1  0.73001000  0.71950000  0.65476000  1.0
  C  C536  1  0.36817000  0.08601000  0.93491000  1.0
  C  C537  1  0.30511000  0.08725000  0.93132000  1.0
  C  C538  1  0.32080000  0.07258000  0.95401000  1.0
  C  C539  1  0.32321000  0.04867000  0.86311000  1.0
  C  C540  1  0.33601000  0.02633000  0.84200000  1.0
  C  C541  1  0.35887000  0.07150000  0.84070000  1.0
  C  C542  1  0.36826000  0.17536000  0.87953000  1.0
  C  C543  1  0.41682000  0.11533000  0.87871000  1.0
  C  C544  1  0.43700000  0.13984000  0.87531000  1.0
  C  C545  1  0.25100000  0.17759000  0.86196000  1.0
  C  C546  1  0.24251000  0.18056000  0.90083000  1.0
  C  C547  1  0.20517000  0.20828000  0.89055000  1.0
  C  C548  1  0.51855000  0.49358000  0.92279000  1.0
  C  C549  1  0.58026000  0.49577000  0.92071000  1.0
  C  C550  1  0.55904000  0.51511000  0.94162000  1.0
  C  C551  1  0.58624000  0.47437000  0.82872000  1.0
  C  C552  1  0.59088000  0.50479000  0.81694000  1.0
  C  C553  1  0.57042000  0.52232000  0.85398000  1.0
  C  C554  1  0.52899000  0.39592000  0.87308000  1.0
  C  C555  1  0.48444000  0.45503000  0.86374000  1.0
  C  C556  1  0.46374000  0.43082000  0.86111000  1.0
  C  C557  1  0.65256000  0.38511000  0.86366000  1.0
  C  C558  1  0.64877000  0.39255000  0.90250000  1.0
  C  C559  1  0.68838000  0.36209000  0.89648000  1.0
  C  C560  1  0.51905000  0.96486000  0.12412000  1.0
  C  C561  1  0.58563000  0.92239000  0.12579000  1.0
  C  C562  1  0.57637000  0.93463000  0.10197000  1.0
  C  C563  1  0.49991000  0.02341000  0.18292000  1.0
  C  C564  1  0.48891000  0.04957000  0.20234000  1.0
  C  C565  1  0.51693000  0.99025000  0.21608000  1.0
  C  C566  1  0.50524000  0.87607000  0.17012000  1.0
  C  C567  1  0.46430000  0.92505000  0.19262000  1.0
  C  C568  1  0.44654000  0.89835000  0.19179000  1.0
  C  C569  1  0.63661000  0.89659000  0.18608000  1.0
  C  C570  1  0.59741000  0.88626000  0.21344000  1.0
  C  C571  1  0.63928000  0.87173000  0.22167000  1.0
  C  C572  1  0.36974000  0.57382000  0.11102000  1.0
  C  C573  1  0.31303000  0.62284000  0.12474000  1.0
  C  C574  1  0.31554000  0.62697000  0.09984000  1.0
  C  C575  1  0.39412000  0.48665000  0.14473000  1.0
  C  C576  1  0.41597000  0.44801000  0.15198000  1.0
  C  C577  1  0.42161000  0.48585000  0.17980000  1.0
  C  C578  1  0.39937000  0.62515000  0.17255000  1.0
  C  C579  1  0.41210000  0.58616000  0.20310000  1.0
  C  C580  1  0.42791000  0.61351000  0.20813000  1.0
  C  C581  1  0.26898000  0.59286000  0.17820000  1.0
  C  C582  1  0.31208000  0.55881000  0.20625000  1.0
  C  C583  1  0.27028000  0.56692000  0.21334000  1.0
  C  C584  1  0.89680000  0.78068000  0.24160000  1.0
  C  C585  1  0.94459000  0.77530000  0.24281000  1.0
  C  C586  1  0.94683000  0.81527000  0.23812000  1.0
  C  C587  1  0.97253000  0.74482000  0.22318000  1.0
  C  C588  1  0.96257000  0.76006000  0.26861000  1.0
  C  C589  1  0.98850000  0.25294000  0.78575000  1.0
  C  C590  1  0.95442000  0.27538000  0.76597000  1.0
  C  C591  1  0.96887000  0.25358000  0.74084000  1.0
  C  C592  1  0.95091000  0.31814000  0.76356000  1.0
  C  C593  1  0.91012000  0.27622000  0.77373000  1.0
  C  C594  1  0.42942000  0.80558000  0.75973000  1.0
  C  C595  1  0.47532000  0.80285000  0.76576000  1.0
  C  C596  1  0.47284000  0.84518000  0.76785000  1.0
  C  C597  1  0.50851000  0.77914000  0.74501000  1.0
  C  C598  1  0.49005000  0.78054000  0.79030000  1.0
  C  C599  1  0.49953000  0.22564000  0.30043000  1.0
  C  C600  1  0.47946000  0.24072000  0.27499000  1.0
  C  C601  1  0.50930000  0.21289000  0.25476000  1.0
  C  C602  1  0.47502000  0.28360000  0.27127000  1.0
  C  C603  1  0.43436000  0.23995000  0.27421000  1.0
  C  C604  1  0.93437000  0.95154000  0.33800000  1.0
  C  C605  1  0.88272000  0.91799000  0.33810000  1.0
  C  C606  1  0.90601000  0.93764000  0.32224000  1.0
  C  C607  1  0.93620000  0.90663000  0.30344000  1.0
  C  C608  1  0.90995000  0.89138000  0.28695000  1.0
  C  C609  1  0.88678000  0.87237000  0.30339000  1.0
  C  C610  1  0.85621000  0.90322000  0.32177000  1.0
  C  C611  1  0.82191000  0.93845000  0.30788000  1.0
  C  C612  1  0.87524000  0.92711000  0.27326000  1.0
  C  C613  1  0.84478000  0.95778000  0.29182000  1.0
  C  C614  1  0.87134000  0.97273000  0.30807000  1.0
  C  C615  1  0.94117000  0.86068000  0.26865000  1.0
  C  C616  1  0.04403000  0.57628000  0.30800000  1.0
  C  C617  1  0.97942000  0.59315000  0.27947000  1.0
  C  C618  1  0.99580000  0.60484000  0.30316000  1.0
  C  C619  1  0.99220000  0.64740000  0.29997000  1.0
  C  C620  1  0.94454000  0.67734000  0.29507000  1.0
  C  C621  1  0.92895000  0.66460000  0.27152000  1.0
  C  C622  1  0.93192000  0.62264000  0.27467000  1.0
  C  C623  1  0.90293000  0.62226000  0.29638000  1.0
  C  C624  1  0.91559000  0.67638000  0.31690000  1.0
  C  C625  1  0.91852000  0.63445000  0.31989000  1.0
  C  C626  1  0.96593000  0.60506000  0.32487000  1.0
  C  C627  1  0.94116000  0.71956000  0.29232000  1.0
  C  C628  1  0.05119000  0.06806000  0.70543000  1.0
  C  C629  1  0.02016000  0.12633000  0.67561000  1.0
  C  C630  1  0.01074000  0.10616000  0.69831000  1.0
  C  C631  1  0.99829000  0.13568000  0.72015000  1.0
  C  C632  1  0.95781000  0.17446000  0.71415000  1.0
  C  C633  1  0.96802000  0.19358000  0.69130000  1.0
  C  C634  1  0.97981000  0.16470000  0.66950000  1.0
  C  C635  1  0.94139000  0.15479000  0.66397000  1.0
  C  C636  1  0.91945000  0.16408000  0.70835000  1.0
  C  C637  1  0.93139000  0.13531000  0.68651000  1.0
  C  C638  1  0.97157000  0.09685000  0.69276000  1.0
  C  C639  1  0.94508000  0.20329000  0.73606000  1.0
  C  C640  1  0.87113000  0.46384000  0.68422000  1.0
  C  C641  1  0.89246000  0.47220000  0.72770000  1.0
  C  C642  1  0.86380000  0.45867000  0.71188000  1.0
  C  C643  1  0.87697000  0.41407000  0.71699000  1.0
  C  C644  1  0.87064000  0.40717000  0.74442000  1.0
  C  C645  1  0.89933000  0.42128000  0.75974000  1.0
  C  C646  1  0.88618000  0.46559000  0.75503000  1.0
  C  C647  1  0.83817000  0.48985000  0.76242000  1.0
  C  C648  1  0.82226000  0.43221000  0.75169000  1.0
  C  C649  1  0.80940000  0.47630000  0.74710000  1.0
  C  C650  1  0.81543000  0.48270000  0.71979000  1.0
  C  C651  1  0.88227000  0.36312000  0.74925000  1.0
  C  C652  1  0.37775000  0.02730000  0.80388000  1.0
  C  C653  1  0.44977000  0.99237000  0.78150000  1.0
  C  C654  1  0.42370000  0.99167000  0.80484000  1.0
  C  C655  1  0.42003000  0.95160000  0.80540000  1.0
  C  C656  1  0.46588000  0.91609000  0.80525000  1.0
  C  C657  1  0.49126000  0.91847000  0.78201000  1.0
  C  C658  1  0.49543000  0.95769000  0.78158000  1.0
  C  C659  1  0.52024000  0.96057000  0.80421000  1.0
  C  C660  1  0.49073000  0.91974000  0.82800000  1.0
  C  C661  1  0.49514000  0.95900000  0.82740000  1.0
  C  C662  1  0.44965000  0.99394000  0.82752000  1.0
  C  C663  1  0.46236000  0.87604000  0.80650000  1.0
  C  C664  1  0.58565000  0.57140000  0.82917000  1.0
  C  C665  1  0.54117000  0.59180000  0.79001000  1.0
  C  C666  1  0.54605000  0.60420000  0.81646000  1.0
  C  C667  1  0.55323000  0.64246000  0.81527000  1.0
  C  C668  1  0.51460000  0.67637000  0.80263000  1.0
  C  C669  1  0.51049000  0.66276000  0.77638000  1.0
  C  C670  1  0.50261000  0.62530000  0.77749000  1.0
  C  C671  1  0.46046000  0.63410000  0.79208000  1.0
  C  C672  1  0.47229000  0.68461000  0.81731000  1.0
  C  C673  1  0.46472000  0.64697000  0.81827000  1.0
  C  C674  1  0.50328000  0.61356000  0.83096000  1.0
  C  C675  1  0.52232000  0.71405000  0.80176000  1.0
  C  C676  1  0.49395000  0.04285000  0.24824000  1.0
  C  C677  1  0.53190000  0.05185000  0.28552000  1.0
  C  C678  1  0.53179000  0.05220000  0.25712000  1.0
  C  C679  1  0.52521000  0.09386000  0.24837000  1.0
  C  C680  1  0.56174000  0.10409000  0.25820000  1.0
  C  C681  1  0.56138000  0.10269000  0.28657000  1.0
  C  C682  1  0.56859000  0.06130000  0.29521000  1.0
  C  C683  1  0.61280000  0.03035000  0.28558000  1.0
  C  C684  1  0.60618000  0.07255000  0.24862000  1.0
  C  C685  1  0.61332000  0.03111000  0.25748000  1.0
  C  C686  1  0.57693000  0.02117000  0.24774000  1.0
  C  C687  1  0.55477000  0.14565000  0.24967000  1.0
  C  C688  1  0.45353000  0.41306000  0.18976000  1.0
  C  C689  1  0.42726000  0.43204000  0.23398000  1.0
  C  C690  1  0.42270000  0.41080000  0.21053000  1.0
  C  C691  1  0.43601000  0.36656000  0.21676000  1.0
  C  C692  1  0.40712000  0.36252000  0.23770000  1.0
  C  C693  1  0.41231000  0.38429000  0.26063000  1.0
  C  C694  1  0.39839000  0.42833000  0.25477000  1.0
  C  C695  1  0.35053000  0.44759000  0.24688000  1.0
  C  C696  1  0.35888000  0.38248000  0.22975000  1.0
  C  C697  1  0.34529000  0.42632000  0.22395000  1.0
  C  C698  1  0.37402000  0.42971000  0.20299000  1.0
  C  C699  1  0.41948000  0.31861000  0.24333000  1.0
  C  C700  1  0.03435000  0.93518000  0.54051000  1.0
  C  C701  1  0.04610000  0.92594000  0.51582000  1.0
  C  C702  1  0.01795000  0.94808000  0.49747000  1.0
  C  C703  1  0.97743000  0.97884000  0.50348000  1.0
  C  C704  1  0.96555000  0.98767000  0.52809000  1.0
  C  C705  1  0.99346000  0.96571000  0.54653000  1.0
  C  C706  1  0.08961000  0.92899000  0.56569000  1.0
  C  C707  1  0.94704000  0.00257000  0.48375000  1.0
  C  C708  1  0.95469000  0.03870000  0.47705000  1.0
  C  C709  1  0.95090000  0.52420000  0.53582000  1.0
  C  C710  1  0.99592000  0.51248000  0.53404000  1.0
  C  C711  1  0.01776000  0.49852000  0.51181000  1.0
  C  C712  1  0.99537000  0.49490000  0.49137000  1.0
  C  C713  1  0.95069000  0.50570000  0.49335000  1.0
  C  C714  1  0.92856000  0.51993000  0.51545000  1.0
  C  C715  1  0.91379000  0.57869000  0.55941000  1.0
  C  C716  1  0.01891000  0.48005000  0.46741000  1.0
  C  C717  1  0.01088000  0.51434000  0.44998000  1.0
  C  C718  1  0.48591000  0.96891000  0.04310000  1.0
  C  C719  1  0.50610000  0.97479000  0.02193000  1.0
  C  C720  1  0.48186000  0.98999000  0.00087000  1.0
  C  C721  1  0.43768000  0.99836000  0.00039000  1.0
  C  C722  1  0.41766000  0.99233000  0.02147000  1.0
  C  C723  1  0.44162000  0.97722000  0.04261000  1.0
  C  C724  1  0.51051000  0.98044000  0.07932000  1.0
  C  C725  1  0.41194000  0.01334000  0.97743000  1.0
  C  C726  1  0.38879000  0.05853000  0.97722000  1.0
  C  C727  1  0.46295000  0.57577000  0.99240000  1.0
  C  C728  1  0.48444000  0.56351000  0.01476000  1.0
  C  C729  1  0.46118000  0.57557000  0.03671000  1.0
  C  C730  1  0.41669000  0.60093000  0.03673000  1.0
  C  C731  1  0.39543000  0.61363000  0.01446000  1.0
  C  C732  1  0.41842000  0.60152000  0.99239000  1.0
  C  C733  1  0.48784000  0.52925000  0.96228000  1.0
  C  C734  1  0.39187000  0.61375000  0.06047000  1.0
  C  C735  1  0.36767000  0.58858000  0.06633000  1.0
  C  C736  1  0.97953000  0.30169000  0.37700000  1.0
  C  C737  1  0.01460000  0.26503000  0.37173000  1.0
  C  C738  1  0.00878000  0.23034000  0.37255000  1.0
  C  C739  1  0.96845000  0.23161000  0.37934000  1.0
  C  C740  1  0.93365000  0.26813000  0.38482000  1.0
  C  C741  1  0.93915000  0.30295000  0.38398000  1.0
  C  C742  1  0.97677000  0.35368000  0.35452000  1.0
  C  C743  1  0.96259000  0.19412000  0.38103000  1.0
  C  C744  1  0.94302000  0.18670000  0.35769000  1.0
  C  C745  1  0.95990000  0.81039000  0.69280000  1.0
  C  C746  1  0.98441000  0.77470000  0.70494000  1.0
  C  C747  1  0.97136000  0.74407000  0.70458000  1.0
  C  C748  1  0.93334000  0.74884000  0.69259000  1.0
  C  C749  1  0.90889000  0.78446000  0.68053000  1.0
  C  C750  1  0.92158000  0.81531000  0.68091000  1.0
  C  C751  1  0.99804000  0.84058000  0.67482000  1.0
  C  C752  1  0.91825000  0.71647000  0.69332000  1.0
  C  C753  1  0.94301000  0.68368000  0.67476000  1.0
  C  C754  1  0.45941000  0.32265000  0.89124000  1.0
  C  C755  1  0.49022000  0.28399000  0.89640000  1.0
  C  C756  1  0.47745000  0.25326000  0.89800000  1.0
  C  C757  1  0.43375000  0.26080000  0.89530000  1.0
  C  C758  1  0.40299000  0.29943000  0.89045000  1.0
  C  C759  1  0.41553000  0.33030000  0.88868000  1.0
  C  C760  1  0.48360000  0.35879000  0.86722000  1.0
  C  C761  1  0.41991000  0.22780000  0.89783000  1.0
  C  C762  1  0.41332000  0.21304000  0.87287000  1.0
  C  C763  1  0.49864000  0.76553000  0.17669000  1.0
  C  C764  1  0.49908000  0.74360000  0.15579000  1.0
  C  C765  1  0.49182000  0.70977000  0.15802000  1.0
  C  C766  1  0.48540000  0.69675000  0.18108000  1.0
  C  C767  1  0.48606000  0.71812000  0.20193000  1.0
  C  C768  1  0.49299000  0.75211000  0.19984000  1.0
  C  C769  1  0.46648000  0.83235000  0.17203000  1.0
  C  C770  1  0.47668000  0.66079000  0.18347000  1.0
  C  C771  1  0.42804000  0.67286000  0.18689000  1.0
  C  C772  1  0.70906000  0.87178000  0.20653000  1.0
  C  C773  1  0.73744000  0.80117000  0.22337000  1.0
  C  C774  1  0.74246000  0.82796000  0.20302000  1.0
  C  C775  1  0.78898000  0.82580000  0.20433000  1.0
  C  C776  1  0.82409000  0.78258000  0.20111000  1.0
  C  C777  1  0.81763000  0.75685000  0.22156000  1.0
  C  C778  1  0.77197000  0.75824000  0.21999000  1.0
  C  C779  1  0.76623000  0.74259000  0.19492000  1.0
  C  C780  1  0.81760000  0.76686000  0.17596000  1.0
  C  C781  1  0.77177000  0.76854000  0.17459000  1.0
  C  C782  1  0.73729000  0.81170000  0.17780000  1.0
  C  C783  1  0.87048000  0.78044000  0.20194000  1.0
  C  C784  1  0.19657000  0.60063000  0.19449000  1.0
  C  C785  1  0.17999000  0.63945000  0.23478000  1.0
  C  C786  1  0.16952000  0.64106000  0.20715000  1.0
  C  C787  1  0.12054000  0.65121000  0.20450000  1.0
  C  C788  1  0.09164000  0.69142000  0.21687000  1.0
  C  C789  1  0.10326000  0.68891000  0.24434000  1.0
  C  C790  1  0.15162000  0.67952000  0.24705000  1.0
  C  C791  1  0.16076000  0.71231000  0.23486000  1.0
  C  C792  1  0.10143000  0.72413000  0.20464000  1.0
  C  C793  1  0.14986000  0.71451000  0.20750000  1.0
  C  C794  1  0.17823000  0.67452000  0.19507000  1.0
  C  C795  1  0.04336000  0.70044000  0.21390000  1.0
  C  C796  1  0.18003000  0.23159000  0.84809000  1.0
  C  C797  1  0.17702000  0.17525000  0.82297000  1.0
  C  C798  1  0.15015000  0.21372000  0.83770000  1.0
  C  C799  1  0.11687000  0.24440000  0.82028000  1.0
  C  C800  1  0.08606000  0.22819000  0.80908000  1.0
  C  C801  1  0.11412000  0.18955000  0.79480000  1.0
  C  C802  1  0.14661000  0.15881000  0.81211000  1.0
  C  C803  1  0.12162000  0.14954000  0.83292000  1.0
  C  C804  1  0.06157000  0.21848000  0.83022000  1.0
  C  C805  1  0.09432000  0.18771000  0.84739000  1.0
  C  C806  1  0.12452000  0.20431000  0.85838000  1.0
  C  C807  1  0.05363000  0.25973000  0.79184000  1.0
  C  C808  1  0.72569000  0.32814000  0.85753000  1.0
  C  C809  1  0.74001000  0.38227000  0.83570000  1.0
  C  C810  1  0.76060000  0.34204000  0.84927000  1.0
  C  C811  1  0.79274000  0.31050000  0.83149000  1.0
  C  C812  1  0.82889000  0.32217000  0.82243000  1.0
  C  C813  1  0.80732000  0.36267000  0.80935000  1.0
  C  C814  1  0.77583000  0.39426000  0.82702000  1.0
  C  C815  1  0.80118000  0.39808000  0.84922000  1.0
  C  C816  1  0.85398000  0.32621000  0.84487000  1.0
  C  C817  1  0.82234000  0.35803000  0.86249000  1.0
  C  C818  1  0.78659000  0.34603000  0.87137000  1.0
  C  C819  1  0.85927000  0.28980000  0.80471000  1.0
  C  C820  1  0.24685000  0.88051000  0.71318000  1.0
  C  C821  1  0.28654000  0.80683000  0.72315000  1.0
  C  C822  1  0.28793000  0.84148000  0.70810000  1.0
  C  C823  1  0.32875000  0.84725000  0.71562000  1.0
  C  C824  1  0.37090000  0.80883000  0.71107000  1.0
  C  C825  1  0.36796000  0.77493000  0.72615000  1.0
  C  C826  1  0.32815000  0.76863000  0.71840000  1.0
  C  C827  1  0.33179000  0.75797000  0.69104000  1.0
  C  C828  1  0.37379000  0.79796000  0.68351000  1.0
  C  C829  1  0.33376000  0.79189000  0.67598000  1.0
  C  C830  1  0.29219000  0.83033000  0.68058000  1.0
  C  C831  1  0.41202000  0.81442000  0.71782000  1.0
  C  C832  1  0.67312000  0.71208000  0.68089000  1.0
  C  C833  1  0.69608000  0.69092000  0.72490000  1.0
  C  C834  1  0.67212000  0.72644000  0.70761000  1.0
  C  C835  1  0.62392000  0.74836000  0.71635000  1.0
  C  C836  1  0.62111000  0.76333000  0.74301000  1.0
  C  C837  1  0.64567000  0.72731000  0.75979000  1.0
  C  C838  1  0.69359000  0.70567000  0.75143000  1.0
  C  C839  1  0.71524000  0.73417000  0.75286000  1.0
  C  C840  1  0.64351000  0.79161000  0.74426000  1.0
  C  C841  1  0.69132000  0.76983000  0.73604000  1.0
  C  C842  1  0.69363000  0.75544000  0.70950000  1.0
  C  C843  1  0.57328000  0.78610000  0.75136000  1.0
  C  C844  1  0.69672000  0.15326000  0.37486000  1.0
  C  C845  1  0.67893000  0.21289000  0.34657000  1.0
  C  C846  1  0.67844000  0.17185000  0.34973000  1.0
  C  C847  1  0.63064000  0.17747000  0.34818000  1.0
  C  C848  1  0.61035000  0.19594000  0.32340000  1.0
  C  C849  1  0.61194000  0.23653000  0.32074000  1.0
  C  C850  1  0.65931000  0.23097000  0.32181000  1.0
  C  C851  1  0.68609000  0.20324000  0.30095000  1.0
  C  C852  1  0.63781000  0.16798000  0.30254000  1.0
  C  C853  1  0.68518000  0.16267000  0.30374000  1.0
  C  C854  1  0.70500000  0.14432000  0.32848000  1.0
  C  C855  1  0.56289000  0.20131000  0.32269000  1.0
  C  C856  1  0.21381000  0.32093000  0.32765000  1.0
  C  C857  1  0.24870000  0.36756000  0.31740000  1.0
  C  C858  1  0.25654000  0.32617000  0.32724000  1.0
  C  C859  1  0.28972000  0.29416000  0.31001000  1.0
  C  C860  1  0.33333333  0.29770000  0.30879000  1.0
  C  C861  1  0.32447000  0.33946000  0.29919000  1.0
  C  C862  1  0.29197000  0.37141000  0.31635000  1.0
  C  C863  1  0.31114000  0.36618000  0.34217000  1.0
  C  C864  1  0.35204000  0.29279000  0.33494000  1.0
  C  C865  1  0.31957000  0.32493000  0.35195000  1.0
  C  C866  1  0.27648000  0.32091000  0.35311000  1.0
  C  C867  1  0.36543000  0.26539000  0.29161000  1.0
  I  I868  1  0.10518000  0.87775000  0.50554000  1.0
  I  I869  1  0.97216000  0.97859000  0.58328000  1.0
  I  I870  1  0.03228000  0.51404000  0.56472000  1.0
  I  I871  1  0.86152000  0.53402000  0.51765000  1.0
  I  I872  1  0.57360000  0.95903000  0.02071000  1.0
  I  I873  1  0.41044000  0.96535000  0.07310000  1.0
  I  I874  1  0.55226000  0.52791000  0.01612000  1.0
  I  I875  1  0.38523000  0.62369000  0.95938000  1.0
  I  I876  1  0.07732000  0.26078000  0.36366000  1.0
  I  I877  1  0.88641000  0.35671000  0.39450000  1.0
  I  I878  1  0.04016000  0.76681000  0.72502000  1.0
  I  I879  1  0.88077000  0.86970000  0.66452000  1.0
  I  I880  1  0.55589000  0.27126000  0.90314000  1.0
  I  I881  1  0.36708000  0.38845000  0.88316000  1.0
  I  I882  1  0.51189000  0.76001000  0.12068000  1.0
  I  I883  1  0.49530000  0.78240000  0.23199000  1.0
  N  N884  1  0.93670000  0.15077000  0.36037000  1.0
  N  N885  1  0.90939000  0.10949000  0.37285000  1.0
  N  N886  1  0.81086000  0.12636000  0.38630000  1.0
  N  N887  1  0.73980000  0.15125000  0.37942000  1.0
  N  N888  1  0.88656000  0.08540000  0.42504000  1.0
  N  N889  1  0.92191000  0.06318000  0.45975000  1.0
  N  N890  1  0.88371000  0.03616000  0.37861000  1.0
  N  N891  1  0.90919000  0.98047000  0.35671000  1.0
  N  N892  1  0.98412000  0.38916000  0.35541000  1.0
  N  N893  1  0.01812000  0.42799000  0.35796000  1.0
  N  N894  1  0.12082000  0.39777000  0.35859000  1.0
  N  N895  1  0.18135000  0.34815000  0.34468000  1.0
  N  N896  1  0.06079000  0.47189000  0.39149000  1.0
  N  N897  1  0.03752000  0.49963000  0.42793000  1.0
  N  N898  1  0.06035000  0.48106000  0.33321000  1.0
  N  N899  1  0.05014000  0.53586000  0.31297000  1.0
  N  N900  1  0.00957000  0.87375000  0.67662000  1.0
  N  N901  1  0.04723000  0.90949000  0.67294000  1.0
  N  N902  1  0.14499000  0.89348000  0.68595000  1.0
  N  N903  1  0.20691000  0.87840000  0.70554000  1.0
  N  N904  1  0.11128000  0.90915000  0.63020000  1.0
  N  N905  1  0.10639000  0.91416000  0.58980000  1.0
  N  N906  1  0.08148000  0.97886000  0.66897000  1.0
  N  N907  1  0.06414000  0.03746000  0.68648000  1.0
  N  N908  1  0.92558000  0.65423000  0.67507000  1.0
  N  N909  1  0.88473000  0.62301000  0.66624000  1.0
  N  N910  1  0.78321000  0.65918000  0.65654000  1.0
  N  N911  1  0.71620000  0.69838000  0.66948000  1.0
  N  N912  1  0.84875000  0.60773000  0.61520000  1.0
  N  N913  1  0.88054000  0.59347000  0.57854000  1.0
  N  N914  1  0.83409000  0.56510000  0.66246000  1.0
  N  N915  1  0.84778000  0.50482000  0.67607000  1.0
  N  N916  1  0.40634000  0.17744000  0.87583000  1.0
  N  N917  1  0.37385000  0.13766000  0.88135000  1.0
  N  N918  1  0.27104000  0.16141000  0.88287000  1.0
  N  N919  1  0.21051000  0.20592000  0.86612000  1.0
  N  N920  1  0.33479000  0.09568000  0.91947000  1.0
  N  N921  1  0.36039000  0.07185000  0.95611000  1.0
  N  N922  1  0.33767000  0.07683000  0.86217000  1.0
  N  N923  1  0.35863000  0.04075000  0.82812000  1.0
  N  N924  1  0.49196000  0.39380000  0.86692000  1.0
  N  N925  1  0.52523000  0.43305000  0.87122000  1.0
  N  N926  1  0.62656000  0.40683000  0.88187000  1.0
  N  N927  1  0.69070000  0.35800000  0.87204000  1.0
  N  N928  1  0.55483000  0.48234000  0.90902000  1.0
  N  N929  1  0.52026000  0.51380000  0.94273000  1.0
  N  N930  1  0.57369000  0.48540000  0.85193000  1.0
  N  N931  1  0.58031000  0.53503000  0.83281000  1.0
  N  N932  1  0.47248000  0.86766000  0.17769000  1.0
  N  N933  1  0.50099000  0.91096000  0.17905000  1.0
  N  N934  1  0.59576000  0.90200000  0.19122000  1.0
  N  N935  1  0.66402000  0.87749000  0.20421000  1.0
  N  N936  1  0.54971000  0.94155000  0.13960000  1.0
  N  N937  1  0.53455000  0.96126000  0.10109000  1.0
  N  N938  1  0.51742000  0.98636000  0.19173000  1.0
  N  N939  1  0.50013000  0.02838000  0.22305000  1.0
  N  N940  1  0.41985000  0.63780000  0.18884000  1.0
  N  N941  1  0.39431000  0.59361000  0.18082000  1.0
  N  N942  1  0.31112000  0.57511000  0.18427000  1.0
  N  N943  1  0.24333000  0.58878000  0.19580000  1.0
  N  N944  1  0.34688000  0.58935000  0.13159000  1.0
  N  N945  1  0.35121000  0.59602000  0.09142000  1.0
  N  N946  1  0.39764000  0.51022000  0.16220000  1.0
  N  N947  1  0.43267000  0.44770000  0.17414000  1.0
  O  O948  1  0.87488000  0.80355000  0.22123000  1.0
  O  O949  1  0.91830000  0.84491000  0.25423000  1.0
  O  O950  1  0.01684000  0.73610000  0.22605000  1.0
  O  O951  1  0.96651000  0.72120000  0.27216000  1.0
  O  O952  1  0.03114000  0.24380000  0.77711000  1.0
  O  O953  1  0.97976000  0.21260000  0.74264000  1.0
  O  O954  1  0.92621000  0.33846000  0.74309000  1.0
  O  O955  1  0.89292000  0.29868000  0.79530000  1.0
  O  O956  1  0.40831000  0.83285000  0.74089000  1.0
  O  O957  1  0.44210000  0.86891000  0.78572000  1.0
  O  O958  1  0.55242000  0.76065000  0.75258000  1.0
  O  O959  1  0.48878000  0.74344000  0.78845000  1.0
  O  O960  1  0.54339000  0.21956000  0.30065000  1.0
  O  O961  1  0.51493000  0.17388000  0.25933000  1.0
  O  O962  1  0.46475000  0.29687000  0.24694000  1.0
  O  O963  1  0.40603000  0.26694000  0.29153000  1.0
  O  O964  1  0.06113000  0.91252000  0.55875000  1.0
  O  O965  1  0.92919000  0.53721000  0.55781000  1.0
  O  O966  1  0.51036000  0.95105000  0.06327000  1.0
  O  O967  1  0.48620000  0.56548000  0.97073000  1.0
  O  O968  1  0.98583000  0.33564000  0.37769000  1.0
  O  O969  1  0.97085000  0.84172000  0.69474000  1.0
  O  O970  1  0.47132000  0.35350000  0.89117000  1.0
  O  O971  1  0.50645000  0.79860000  0.17473000  1.0
