# generated using pymatgen
data_SmH36C51(SO6)3
_symmetry_space_group_name_H-M   'P 1'
_cell_length_a   35.97420000
_cell_length_b   37.75880000
_cell_length_c   40.74340000
_cell_angle_alpha   92.91700000
_cell_angle_beta   91.14500000
_cell_angle_gamma   103.09900000
_symmetry_Int_Tables_number   1
_chemical_formula_structural   SmH36C51(SO6)3
_chemical_formula_sum   'Sm8 H288 C408 S24 O144'
_cell_volume   53805.34877996
_cell_formula_units_Z   8
loop_
 _symmetry_equiv_pos_site_id
 _symmetry_equiv_pos_as_xyz
  1  'x, y, z'
loop_
 _atom_site_type_symbol
 _atom_site_label
 _atom_site_symmetry_multiplicity
 _atom_site_fract_x
 _atom_site_fract_y
 _atom_site_fract_z
 _atom_site_occupancy
  Sm  Sm0  1  0.97732000  0.96787000  0.51315000  1.0
  Sm  Sm1  1  0.99467000  0.00489000  0.46206000  1.0
  Sm  Sm2  1  0.01677000  0.46006000  0.01456000  1.0
  Sm  Sm3  1  0.96552000  0.51040000  0.96911000  1.0
  Sm  Sm4  1  0.52225000  0.47295000  0.50248000  1.0
  Sm  Sm5  1  0.44527000  0.48775000  0.48379000  1.0
  Sm  Sm6  1  0.47740000  0.99003000  0.99274000  1.0
  Sm  Sm7  1  0.51225000  0.97746000  0.99351000  1.0
  H  H8  1  0.88393000  0.88599000  0.73182000  1.0
  H  H9  1  0.85030000  0.74476000  0.77708000  1.0
  H  H10  1  0.87086000  0.77091000  0.81422000  1.0
  H  H11  1  0.86634000  0.79372000  0.77830000  1.0
  H  H12  1  0.84043000  0.75357000  0.86304000  1.0
  H  H13  1  0.79838000  0.72129000  0.87088000  1.0
  H  H14  1  0.81610000  0.77604000  0.73684000  1.0
  H  H15  1  0.77583000  0.79592000  0.73048000  1.0
  H  H16  1  0.73775000  0.70888000  0.85920000  1.0
  H  H17  1  0.70313000  0.73511000  0.85812000  1.0
  H  H18  1  0.74234000  0.74771000  0.88807000  1.0
  H  H19  1  0.72350000  0.84376000  0.78951000  1.0
  H  H20  1  0.72131000  0.81201000  0.75522000  1.0
  H  H21  1  0.76245000  0.84879000  0.76270000  1.0
  H  H22  1  0.68858000  0.80368000  0.82455000  1.0
  H  H23  1  0.70373000  0.79242000  0.86409000  1.0
  H  H24  1  0.68258000  0.87590000  0.82066000  1.0
  H  H25  1  0.72221000  0.84991000  0.91471000  1.0
  H  H26  1  0.78352000  0.64426000  0.82504000  1.0
  H  H27  1  0.88618000  0.70723000  0.87363000  1.0
  H  H28  1  0.64802000  0.91751000  0.84794000  1.0
  H  H29  1  0.68774000  0.89181000  0.94238000  1.0
  H  H30  1  0.78838000  0.59163000  0.85620000  1.0
  H  H31  1  0.89028000  0.65550000  0.90675000  1.0
  H  H32  1  0.80653000  0.79276000  0.68306000  1.0
  H  H33  1  0.84092000  0.80346000  0.63326000  1.0
  H  H34  1  0.91854000  0.89681000  0.68060000  1.0
  H  H35  1  0.28825000  0.65048000  0.36912000  1.0
  H  H36  1  0.20350000  0.69769000  0.39716000  1.0
  H  H37  1  0.17523000  0.72912000  0.39553000  1.0
  H  H38  1  0.21548000  0.73382000  0.36919000  1.0
  H  H39  1  0.15764000  0.76193000  0.35204000  1.0
  H  H40  1  0.11369000  0.75298000  0.32991000  1.0
  H  H41  1  0.23263000  0.66760000  0.35981000  1.0
  H  H42  1  0.19771000  0.63734000  0.38267000  1.0
  H  H43  1  0.06379000  0.70547000  0.32051000  1.0
  H  H44  1  0.05570000  0.66925000  0.29017000  1.0
  H  H45  1  0.08350000  0.71335000  0.28056000  1.0
  H  H46  1  0.12856000  0.58268000  0.28926000  1.0
  H  H47  1  0.15582000  0.58298000  0.32569000  1.0
  H  H48  1  0.17964000  0.59827000  0.28849000  1.0
  H  H49  1  0.08012000  0.61420000  0.26840000  1.0
  H  H50  1  0.09499000  0.65764000  0.25028000  1.0
  H  H51  1  0.07662000  0.56508000  0.21535000  1.0
  H  H52  1  0.15015000  0.66790000  0.19582000  1.0
  H  H53  1  0.03741000  0.72385000  0.37100000  1.0
  H  H54  1  0.13416000  0.81006000  0.40022000  1.0
  H  H55  1  0.04815000  0.56019000  0.15930000  1.0
  H  H56  1  0.12381000  0.66274000  0.13961000  1.0
  H  H57  1  0.99471000  0.76453000  0.38147000  1.0
  H  H58  1  0.09167000  0.85230000  0.40959000  1.0
  H  H59  1  0.20764000  0.54675000  0.36177000  1.0
  H  H60  1  0.24671000  0.52331000  0.40216000  1.0
  H  H61  1  0.32654000  0.62748000  0.40968000  1.0
  H  H62  1  0.72155000  0.42513000  0.09298000  1.0
  H  H63  1  0.72803000  0.42187000  0.22733000  1.0
  H  H64  1  0.68612000  0.42079000  0.24852000  1.0
  H  H65  1  0.68892000  0.43643000  0.20729000  1.0
  H  H66  1  0.62256000  0.40404000  0.23248000  1.0
  H  H67  1  0.58910000  0.36160000  0.23498000  1.0
  H  H68  1  0.73669000  0.41510000  0.17372000  1.0
  H  H69  1  0.76162000  0.37933000  0.17906000  1.0
  H  H70  1  0.59474000  0.30541000  0.24912000  1.0
  H  H71  1  0.60155000  0.26750000  0.22454000  1.0
  H  H72  1  0.57223000  0.29613000  0.20875000  1.0
  H  H73  1  0.71257000  0.27633000  0.16300000  1.0
  H  H74  1  0.74779000  0.31803000  0.16415000  1.0
  H  H75  1  0.71302000  0.30720000  0.13083000  1.0
  H  H76  1  0.64987000  0.24734000  0.17825000  1.0
  H  H77  1  0.60544000  0.26058000  0.16984000  1.0
  H  H78  1  0.67626000  0.21338000  0.12595000  1.0
  H  H79  1  0.57507000  0.25222000  0.10557000  1.0
  H  H80  1  0.56773000  0.33937000  0.29797000  1.0
  H  H81  1  0.64420000  0.44415000  0.29078000  1.0
  H  H82  1  0.64188000  0.15088000  0.10850000  1.0
  H  H83  1  0.54057000  0.19001000  0.08803000  1.0
  H  H84  1  0.52444000  0.36791000  0.33070000  1.0
  H  H85  1  0.60100000  0.47298000  0.32348000  1.0
  H  H86  1  0.80397000  0.37490000  0.13858000  1.0
  H  H87  1  0.85545000  0.41594000  0.11241000  1.0
  H  H88  1  0.77271000  0.46477000  0.06429000  1.0
  H  H89  1  0.42813000  0.27249000  0.63075000  1.0
  H  H90  1  0.44917000  0.19332000  0.68837000  1.0
  H  H91  1  0.44418000  0.16702000  0.72265000  1.0
  H  H92  1  0.42044000  0.20441000  0.72181000  1.0
  H  H93  1  0.39468000  0.14603000  0.75596000  1.0
  H  H94  1  0.35949000  0.10425000  0.75472000  1.0
  H  H95  1  0.41055000  0.22212000  0.66303000  1.0
  H  H96  1  0.41710000  0.19632000  0.62597000  1.0
  H  H97  1  0.34858000  0.05423000  0.71923000  1.0
  H  H98  1  0.31881000  0.04127000  0.68364000  1.0
  H  H99  1  0.30217000  0.06469000  0.71806000  1.0
  H  H100  1  0.33603000  0.11309000  0.59250000  1.0
  H  H101  1  0.36919000  0.15569000  0.59314000  1.0
  H  H102  1  0.31990000  0.15424000  0.60129000  1.0
  H  H103  1  0.30085000  0.06592000  0.62264000  1.0
  H  H104  1  0.27565000  0.06695000  0.66046000  1.0
  H  H105  1  0.27641000  0.08804000  0.56751000  1.0
  H  H106  1  0.19855000  0.08420000  0.64664000  1.0
  H  H107  1  0.38924000  0.03914000  0.77061000  1.0
  H  H108  1  0.46548000  0.14502000  0.77832000  1.0
  H  H109  1  0.22291000  0.06997000  0.52803000  1.0
  H  H110  1  0.14423000  0.06792000  0.60680000  1.0
  H  H111  1  0.42118000  0.02151000  0.81917000  1.0
  H  H112  1  0.49715000  0.12795000  0.82698000  1.0
  H  H113  1  0.33173000  0.21124000  0.57202000  1.0
  H  H114  1  0.35083000  0.25059000  0.52654000  1.0
  H  H115  1  0.44722000  0.31210000  0.58525000  1.0
  H  H116  1  0.18318000  0.16643000  0.29799000  1.0
  H  H117  1  0.12293000  0.21356000  0.19673000  1.0
  H  H118  1  0.17133000  0.23588000  0.21024000  1.0
  H  H119  1  0.14765000  0.19781000  0.23005000  1.0
  H  H120  1  0.17616000  0.25626000  0.16137000  1.0
  H  H121  1  0.19350000  0.24829000  0.12202000  1.0
  H  H122  1  0.11750000  0.14146000  0.21640000  1.0
  H  H123  1  0.13100000  0.10083000  0.20341000  1.0
  H  H124  1  0.17596000  0.20054000  0.08294000  1.0
  H  H125  1  0.19729000  0.16355000  0.07427000  1.0
  H  H126  1  0.22686000  0.20709000  0.08859000  1.0
  H  H127  1  0.19610000  0.07528000  0.15794000  1.0
  H  H128  1  0.18439000  0.08413000  0.19947000  1.0
  H  H129  1  0.23090000  0.10231000  0.18709000  1.0
  H  H130  1  0.21085000  0.10665000  0.09911000  1.0
  H  H131  1  0.24749000  0.14854000  0.09952000  1.0
  H  H132  1  0.24555000  0.04959000  0.09569000  1.0
  H  H133  1  0.32470000  0.15096000  0.12275000  1.0
  H  H134  1  0.14723000  0.24575000  0.06475000  1.0
  H  H135  1  0.11085000  0.28680000  0.15612000  1.0
  H  H136  1  0.28910000  0.03577000  0.05334000  1.0
  H  H137  1  0.36854000  0.13737000  0.08104000  1.0
  H  H138  1  0.14516000  0.30289000  0.03967000  1.0
  H  H139  1  0.10771000  0.34418000  0.13081000  1.0
  H  H140  1  0.09785000  0.08022000  0.24880000  1.0
  H  H141  1  0.06007000  0.07502000  0.29803000  1.0
  H  H142  1  0.14580000  0.16050000  0.34786000  1.0
  H  H143  1  0.73727000  0.39232000  0.64387000  1.0
  H  H144  1  0.74285000  0.26332000  0.60108000  1.0
  H  H145  1  0.77234000  0.23238000  0.59739000  1.0
  H  H146  1  0.79088000  0.27910000  0.58725000  1.0
  H  H147  1  0.83708000  0.24034000  0.60337000  1.0
  H  H148  1  0.86911000  0.23947000  0.63693000  1.0
  H  H149  1  0.71592000  0.29438000  0.64145000  1.0
  H  H150  1  0.73705000  0.33626000  0.66403000  1.0
  H  H151  1  0.84688000  0.21118000  0.69000000  1.0
  H  H152  1  0.84988000  0.23670000  0.72757000  1.0
  H  H153  1  0.88481000  0.25137000  0.69690000  1.0
  H  H154  1  0.76867000  0.31601000  0.74365000  1.0
  H  H155  1  0.73309000  0.31371000  0.71272000  1.0
  H  H156  1  0.77352000  0.35215000  0.71563000  1.0
  H  H157  1  0.81877000  0.28467000  0.75792000  1.0
  H  H158  1  0.86534000  0.29622000  0.73995000  1.0
  H  H159  1  0.81092000  0.33583000  0.80742000  1.0
  H  H160  1  0.91410000  0.36470000  0.75374000  1.0
  H  H161  1  0.87837000  0.17453000  0.66302000  1.0
  H  H162  1  0.81964000  0.16780000  0.56908000  1.0
  H  H163  1  0.84853000  0.34876000  0.85977000  1.0
  H  H164  1  0.95185000  0.37749000  0.80577000  1.0
  H  H165  1  0.92347000  0.14189000  0.63912000  1.0
  H  H166  1  0.86494000  0.13425000  0.54483000  1.0
  H  H167  1  0.71616000  0.31584000  0.55996000  1.0
  H  H168  1  0.67979000  0.35439000  0.53252000  1.0
  H  H169  1  0.70060000  0.43049000  0.61678000  1.0
  H  H170  1  0.18950000  0.59136000  0.84454000  1.0
  H  H171  1  0.29020000  0.52890000  0.78992000  1.0
  H  H172  1  0.31509000  0.54248000  0.75481000  1.0
  H  H173  1  0.27609000  0.56270000  0.76529000  1.0
  H  H174  1  0.34491000  0.59636000  0.73354000  1.0
  H  H175  1  0.39236000  0.62197000  0.74120000  1.0
  H  H176  1  0.25674000  0.55996000  0.82146000  1.0
  H  H177  1  0.28269000  0.54846000  0.85608000  1.0
  H  H178  1  0.43805000  0.62921000  0.78073000  1.0
  H  H179  1  0.44577000  0.65821000  0.81691000  1.0
  H  H180  1  0.42424000  0.67221000  0.78089000  1.0
  H  H181  1  0.36447000  0.62524000  0.90207000  1.0
  H  H182  1  0.32452000  0.58778000  0.89592000  1.0
  H  H183  1  0.31761000  0.63348000  0.89553000  1.0
  H  H184  1  0.41791000  0.66636000  0.87351000  1.0
  H  H185  1  0.40908000  0.69368000  0.84035000  1.0
  H  H186  1  0.42171000  0.72415000  0.92164000  1.0
  H  H187  1  0.34230000  0.73334000  0.84409000  1.0
  H  H188  1  0.45704000  0.57812000  0.74454000  1.0
  H  H189  1  0.35212000  0.54792000  0.68709000  1.0
  H  H190  1  0.44414000  0.79060000  0.92666000  1.0
  H  H191  1  0.36280000  0.79990000  0.84975000  1.0
  H  H192  1  0.49339000  0.57352000  0.69533000  1.0
  H  H193  1  0.38776000  0.54678000  0.63680000  1.0
  H  H194  1  0.26493000  0.55831000  0.91405000  1.0
  H  H195  1  0.21053000  0.51848000  0.93828000  1.0
  H  H196  1  0.13440000  0.55173000  0.86895000  1.0
  H  H197  1  0.63049000  0.75077000  0.40763000  1.0
  H  H198  1  0.54884000  0.73480000  0.28745000  1.0
  H  H199  1  0.55258000  0.75605000  0.24962000  1.0
  H  H200  1  0.54178000  0.77925000  0.28696000  1.0
  H  H201  1  0.56262000  0.82436000  0.25237000  1.0
  H  H202  1  0.60280000  0.85726000  0.24171000  1.0
  H  H203  1  0.58884000  0.70933000  0.30624000  1.0
  H  H204  1  0.63282000  0.71514000  0.32688000  1.0
  H  H205  1  0.66440000  0.85938000  0.22928000  1.0
  H  H206  1  0.70524000  0.86758000  0.25613000  1.0
  H  H207  1  0.66619000  0.88863000  0.26587000  1.0
  H  H208  1  0.71821000  0.78702000  0.33872000  1.0
  H  H209  1  0.69224000  0.74333000  0.32519000  1.0
  H  H210  1  0.67625000  0.76639000  0.36002000  1.0
  H  H211  1  0.73553000  0.84017000  0.31313000  1.0
  H  H212  1  0.70995000  0.87599000  0.31120000  1.0
  H  H213  1  0.76267000  0.83002000  0.37950000  1.0
  H  H214  1  0.70663000  0.91769000  0.36667000  1.0
  H  H215  1  0.63821000  0.84957000  0.17440000  1.0
  H  H216  1  0.51913000  0.81377000  0.19466000  1.0
  H  H217  1  0.80886000  0.86878000  0.41865000  1.0
  H  H218  1  0.75363000  0.95759000  0.40414000  1.0
  H  H219  1  0.62298000  0.89269000  0.13603000  1.0
  H  H220  1  0.50350000  0.85692000  0.15601000  1.0
  H  H221  1  0.54944000  0.67193000  0.34701000  1.0
  H  H222  1  0.53650000  0.63235000  0.39336000  1.0
  H  H223  1  0.61823000  0.71126000  0.45399000  1.0
  H  H224  1  0.90576000  0.79572000  0.62079000  1.0
  H  H225  1  0.91236000  0.91109000  0.61832000  1.0
  H  H226  1  0.96681000  0.85623000  0.54486000  1.0
  H  H227  1  0.06648000  0.66908000  0.11599000  1.0
  H  H228  1  0.05504000  0.55321000  0.09942000  1.0
  H  H229  1  0.01645000  0.61608000  0.02565000  1.0
  H  H230  1  0.49977000  0.44624000  0.30539000  1.0
  H  H231  1  0.56171000  0.43467000  0.39396000  1.0
  H  H232  1  0.46083000  0.47786000  0.39892000  1.0
  H  H233  1  0.53051000  0.06690000  0.81029000  1.0
  H  H234  1  0.45205000  0.04840000  0.88944000  1.0
  H  H235  1  0.56324000  0.02379000  0.89843000  1.0
  H  H236  1  0.77745000  0.57926000  0.91233000  1.0
  H  H237  1  0.89959000  0.59261000  0.90715000  1.0
  H  H238  1  0.83350000  0.51163000  0.96664000  1.0
  H  H239  1  0.97917000  0.81246000  0.35551000  1.0
  H  H240  1  0.04074000  0.87122000  0.44139000  1.0
  H  H241  1  0.94000000  0.90005000  0.40257000  1.0
  H  H242  1  0.54187000  0.13482000  0.14243000  1.0
  H  H243  1  0.58327000  0.11616000  0.04600000  1.0
  H  H244  1  0.49540000  0.03482000  0.08684000  1.0
  H  H245  1  0.41088000  0.25932000  0.49080000  1.0
  H  H246  1  0.42048000  0.35902000  0.55027000  1.0
  H  H247  1  0.44550000  0.36236000  0.44758000  1.0
  H  H248  1  0.70078000  0.97565000  0.88753000  1.0
  H  H249  1  0.60700000  0.91348000  0.93952000  1.0
  H  H250  1  0.62867000  0.03068000  0.94287000  1.0
  H  H251  1  0.82516000  0.51581000  0.07649000  1.0
  H  H252  1  0.88104000  0.42691000  0.06057000  1.0
  H  H253  1  0.93298000  0.53337000  0.03078000  1.0
  H  H254  1  0.18838000  0.12205000  0.52360000  1.0
  H  H255  1  0.10503000  0.02807000  0.55219000  1.0
  H  H256  1  0.07695000  0.09808000  0.47933000  1.0
  H  H257  1  0.28118000  0.60010000  0.46838000  1.0
  H  H258  1  0.33963000  0.52643000  0.41793000  1.0
  H  H259  1  0.35201000  0.54648000  0.52345000  1.0
  H  H260  1  0.08271000  0.17502000  0.36067000  1.0
  H  H261  1  0.06360000  0.05793000  0.35804000  1.0
  H  H262  1  0.01212000  0.11483000  0.43187000  1.0
  H  H263  1  0.94109000  0.31455000  0.85145000  1.0
  H  H264  1  0.91775000  0.41556000  0.88903000  1.0
  H  H265  1  0.99208000  0.36259000  0.94351000  1.0
  H  H266  1  0.51480000  0.60015000  0.64855000  1.0
  H  H267  1  0.42221000  0.51522000  0.60635000  1.0
  H  H268  1  0.52789000  0.54482000  0.55700000  1.0
  H  H269  1  0.58082000  0.94510000  0.16866000  1.0
  H  H270  1  0.52911000  0.88221000  0.08147000  1.0
  H  H271  1  0.54447000  0.99879000  0.08821000  1.0
  H  H272  1  0.19206000  0.36981000  0.06575000  1.0
  H  H273  1  0.07142000  0.36529000  0.06925000  1.0
  H  H274  1  0.14743000  0.45521000  0.02663000  1.0
  H  H275  1  0.96577000  0.17840000  0.58665000  1.0
  H  H276  1  0.90320000  0.06897000  0.55851000  1.0
  H  H277  1  0.02229000  0.10492000  0.53644000  1.0
  H  H278  1  0.41780000  0.84572000  0.83785000  1.0
  H  H279  1  0.42563000  0.84502000  0.94373000  1.0
  H  H280  1  0.45666000  0.94566000  0.89584000  1.0
  H  H281  1  0.55278000  0.70012000  0.48108000  1.0
  H  H282  1  0.56197000  0.59570000  0.43838000  1.0
  H  H283  1  0.50644000  0.60316000  0.53009000  1.0
  H  H284  1  0.34897000  0.13406000  0.01793000  1.0
  H  H285  1  0.36655000  0.03000000  0.04478000  1.0
  H  H286  1  0.41528000  0.07841000  0.95709000  1.0
  H  H287  1  0.16390000  0.46080000  0.91687000  1.0
  H  H288  1  0.10150000  0.54569000  0.92345000  1.0
  H  H289  1  0.05175000  0.43925000  0.95506000  1.0
  H  H290  1  0.76281000  0.96233000  0.46063000  1.0
  H  H291  1  0.85986000  0.91916000  0.43279000  1.0
  H  H292  1  0.86835000  0.99540000  0.51604000  1.0
  H  H293  1  0.73479000  0.44528000  0.54281000  1.0
  H  H294  1  0.61438000  0.40742000  0.55794000  1.0
  H  H295  1  0.65453000  0.49500000  0.49429000  1.0
  C  C296  1  0.81575000  0.73413000  0.85054000  1.0
  C  C297  1  0.81209000  0.77344000  0.80173000  1.0
  C  C298  1  0.80218000  0.79803000  0.74587000  1.0
  C  C299  1  0.79459000  0.75631000  0.82962000  1.0
  C  C300  1  0.73413000  0.73724000  0.86238000  1.0
  C  C301  1  0.79128000  0.79209000  0.78150000  1.0
  C  C302  1  0.74060000  0.82842000  0.77475000  1.0
  C  C303  1  0.75819000  0.76184000  0.83868000  1.0
  C  C304  1  0.75899000  0.80321000  0.79417000  1.0
  C  C305  1  0.74363000  0.78960000  0.82417000  1.0
  C  C306  1  0.71385000  0.80636000  0.84153000  1.0
  C  C307  1  0.70467000  0.85978000  0.86576000  1.0
  C  C308  1  0.83382000  0.67958000  0.84788000  1.0
  C  C309  1  0.68258000  0.87814000  0.84723000  1.0
  C  C310  1  0.70474000  0.86351000  0.90020000  1.0
  C  C311  1  0.80685000  0.64665000  0.84280000  1.0
  C  C312  1  0.86484000  0.68197000  0.86995000  1.0
  C  C313  1  0.66285000  0.90179000  0.86285000  1.0
  C  C314  1  0.68499000  0.88725000  0.91591000  1.0
  C  C315  1  0.80972000  0.61679000  0.86067000  1.0
  C  C316  1  0.86731000  0.65232000  0.88850000  1.0
  C  C317  1  0.66513000  0.90765000  0.89725000  1.0
  C  C318  1  0.83926000  0.61960000  0.88453000  1.0
  C  C319  1  0.88289000  0.85054000  0.65311000  1.0
  C  C320  1  0.83092000  0.81555000  0.68368000  1.0
  C  C321  1  0.85061000  0.82176000  0.65460000  1.0
  C  C322  1  0.89387000  0.87427000  0.68101000  1.0
  C  C323  1  0.87427000  0.86794000  0.71033000  1.0
  C  C324  1  0.84335000  0.83796000  0.71262000  1.0
  C  C325  1  0.85192000  0.77033000  0.79231000  1.0
  C  C326  1  0.12979000  0.74186000  0.34900000  1.0
  C  C327  1  0.16711000  0.69112000  0.35178000  1.0
  C  C328  1  0.20767000  0.64401000  0.35749000  1.0
  C  C329  1  0.13687000  0.70446000  0.33737000  1.0
  C  C330  1  0.07741000  0.69343000  0.29998000  1.0
  C  C331  1  0.17506000  0.65722000  0.33976000  1.0
  C  C332  1  0.15417000  0.59831000  0.30341000  1.0
  C  C333  1  0.11430000  0.68366000  0.31106000  1.0
  C  C334  1  0.15222000  0.63721000  0.31273000  1.0
  C  C335  1  0.12517000  0.65286000  0.29590000  1.0
  C  C336  1  0.10532000  0.63601000  0.26297000  1.0
  C  C337  1  0.11479000  0.61733000  0.20987000  1.0
  C  C338  1  0.08894000  0.76422000  0.38366000  1.0
  C  C339  1  0.08682000  0.58639000  0.19877000  1.0
  C  C340  1  0.12810000  0.64426000  0.18788000  1.0
  C  C341  1  0.04946000  0.75196000  0.37893000  1.0
  C  C342  1  0.10373000  0.80040000  0.39560000  1.0
  C  C343  1  0.07088000  0.58353000  0.16663000  1.0
  C  C344  1  0.11272000  0.64123000  0.15577000  1.0
  C  C345  1  0.02511000  0.77543000  0.38513000  1.0
  C  C346  1  0.07931000  0.82431000  0.40143000  1.0
  C  C347  1  0.08310000  0.61134000  0.14483000  1.0
  C  C348  1  0.03953000  0.81222000  0.39589000  1.0
  C  C349  1  0.29003000  0.57337000  0.40875000  1.0
  C  C350  1  0.23390000  0.56432000  0.37172000  1.0
  C  C351  1  0.25654000  0.55077000  0.39441000  1.0
  C  C352  1  0.30122000  0.60923000  0.39870000  1.0
  C  C353  1  0.27873000  0.62270000  0.37605000  1.0
  C  C354  1  0.24377000  0.60087000  0.36339000  1.0
  C  C355  1  0.19165000  0.71402000  0.37965000  1.0
  C  C356  1  0.61977000  0.37538000  0.23941000  1.0
  C  C357  1  0.68074000  0.37784000  0.20892000  1.0
  C  C358  1  0.73501000  0.38552000  0.16894000  1.0
  C  C359  1  0.64495000  0.35731000  0.21838000  1.0
  C  C360  1  0.59853000  0.29602000  0.22344000  1.0
  C  C361  1  0.70200000  0.36210000  0.18585000  1.0
  C  C362  1  0.71741000  0.30552000  0.15770000  1.0
  C  C363  1  0.63277000  0.31999000  0.20804000  1.0
  C  C364  1  0.69048000  0.32453000  0.17632000  1.0
  C  C365  1  0.65386000  0.30474000  0.18443000  1.0
  C  C366  1  0.63690000  0.26810000  0.16684000  1.0
  C  C367  1  0.62755000  0.23663000  0.11768000  1.0
  C  C368  1  0.60842000  0.38997000  0.29187000  1.0
  C  C369  1  0.64701000  0.20840000  0.11672000  1.0
  C  C370  1  0.58994000  0.23030000  0.10531000  1.0
  C  C371  1  0.57499000  0.36847000  0.30364000  1.0
  C  C372  1  0.61815000  0.42756000  0.29962000  1.0
  C  C373  1  0.62757000  0.17307000  0.10673000  1.0
  C  C374  1  0.57050000  0.19509000  0.09535000  1.0
  C  C375  1  0.55050000  0.38467000  0.32199000  1.0
  C  C376  1  0.59363000  0.44383000  0.31798000  1.0
  C  C377  1  0.58887000  0.16622000  0.09724000  1.0
  C  C378  1  0.55958000  0.42240000  0.32881000  1.0
  C  C379  1  0.81812000  0.44384000  0.08650000  1.0
  C  C380  1  0.79713000  0.39500000  0.12294000  1.0
  C  C381  1  0.82637000  0.41803000  0.10749000  1.0
  C  C382  1  0.77999000  0.44581000  0.08099000  1.0
  C  C383  1  0.75081000  0.42312000  0.09700000  1.0
  C  C384  1  0.75936000  0.39843000  0.11870000  1.0
  C  C385  1  0.69654000  0.41633000  0.22362000  1.0
  C  C386  1  0.38453000  0.11952000  0.74170000  1.0
  C  C387  1  0.39257000  0.15719000  0.69074000  1.0
  C  C388  1  0.39577000  0.20126000  0.64414000  1.0
  C  C389  1  0.37315000  0.12581000  0.70659000  1.0
  C  C390  1  0.32746000  0.06316000  0.70336000  1.0
  C  C391  1  0.37936000  0.16478000  0.65928000  1.0
  C  C392  1  0.34363000  0.14046000  0.60529000  1.0
  C  C393  1  0.34337000  0.09994000  0.68939000  1.0
  C  C394  1  0.35066000  0.13797000  0.64188000  1.0
  C  C395  1  0.32988000  0.10764000  0.65822000  1.0
  C  C396  1  0.29296000  0.08412000  0.64242000  1.0
  C  C397  1  0.24132000  0.08757000  0.60989000  1.0
  C  C398  1  0.42497000  0.09340000  0.77123000  1.0
  C  C399  1  0.24774000  0.08188000  0.57648000  1.0
  C  C400  1  0.20381000  0.07963000  0.62089000  1.0
  C  C401  1  0.41167000  0.05906000  0.78377000  1.0
  C  C402  1  0.45467000  0.11863000  0.78799000  1.0
  C  C403  1  0.21709000  0.07153000  0.55398000  1.0
  C  C404  1  0.17289000  0.07013000  0.59817000  1.0
  C  C405  1  0.42979000  0.04912000  0.81149000  1.0
  C  C406  1  0.47260000  0.10885000  0.81571000  1.0
  C  C407  1  0.17951000  0.06833000  0.56434000  1.0
  C  C408  1  0.46144000  0.07350000  0.82681000  1.0
  C  C409  1  0.40058000  0.28428000  0.55232000  1.0
  C  C410  1  0.35714000  0.23296000  0.57503000  1.0
  C  C411  1  0.36800000  0.25555000  0.54915000  1.0
  C  C412  1  0.42192000  0.29019000  0.58216000  1.0
  C  C413  1  0.41130000  0.26714000  0.60801000  1.0
  C  C414  1  0.37904000  0.23770000  0.60436000  1.0
  C  C415  1  0.42823000  0.18193000  0.70689000  1.0
  C  C416  1  0.17182000  0.23628000  0.13995000  1.0
  C  C417  1  0.16633000  0.18569000  0.18021000  1.0
  C  C418  1  0.14281000  0.12947000  0.21252000  1.0
  C  C419  1  0.17829000  0.19947000  0.14949000  1.0
  C  C420  1  0.19899000  0.18775000  0.09133000  1.0
  C  C421  1  0.16785000  0.14943000  0.18661000  1.0
  C  C422  1  0.20054000  0.09636000  0.17851000  1.0
  C  C423  1  0.19470000  0.17783000  0.12697000  1.0
  C  C424  1  0.19119000  0.13130000  0.16732000  1.0
  C  C425  1  0.20618000  0.14645000  0.13768000  1.0
  C  C426  1  0.23060000  0.12773000  0.11519000  1.0
  C  C427  1  0.28178000  0.10172000  0.11148000  1.0
  C  C428  1  0.13037000  0.26271000  0.11248000  1.0
  C  C429  1  0.27270000  0.06841000  0.09284000  1.0
  C  C430  1  0.31718000  0.12557000  0.10800000  1.0
  C  C431  1  0.13851000  0.26702000  0.07926000  1.0
  C  C432  1  0.11790000  0.29018000  0.13061000  1.0
  C  C433  1  0.29763000  0.06046000  0.06899000  1.0
  C  C434  1  0.34207000  0.11767000  0.08435000  1.0
  C  C435  1  0.13698000  0.29945000  0.06495000  1.0
  C  C436  1  0.11582000  0.32260000  0.11612000  1.0
  C  C437  1  0.33198000  0.08564000  0.06386000  1.0
  C  C438  1  0.12632000  0.32774000  0.08341000  1.0
  C  C439  1  0.09972000  0.11779000  0.32652000  1.0
  C  C440  1  0.10842000  0.09833000  0.27002000  1.0
  C  C441  1  0.08703000  0.09490000  0.29839000  1.0
  C  C442  1  0.13492000  0.14312000  0.32621000  1.0
  C  C443  1  0.15630000  0.14650000  0.29788000  1.0
  C  C444  1  0.14280000  0.12520000  0.26919000  1.0
  C  C445  1  0.15089000  0.20925000  0.20549000  1.0
  C  C446  1  0.83822000  0.23271000  0.62929000  1.0
  C  C447  1  0.78825000  0.27140000  0.63949000  1.0
  C  C448  1  0.74295000  0.31540000  0.64609000  1.0
  C  C449  1  0.81758000  0.25539000  0.65196000  1.0
  C  C450  1  0.85421000  0.23935000  0.70086000  1.0
  C  C451  1  0.77316000  0.29638000  0.65992000  1.0
  C  C452  1  0.76436000  0.32226000  0.71776000  1.0
  C  C453  1  0.82962000  0.26239000  0.68557000  1.0
  C  C454  1  0.78590000  0.30300000  0.69362000  1.0
  C  C455  1  0.81715000  0.28933000  0.70531000  1.0
  C  C456  1  0.83608000  0.30144000  0.73949000  1.0
  C  C457  1  0.85995000  0.34870000  0.77686000  1.0
  C  C458  1  0.84631000  0.17472000  0.61761000  1.0
  C  C459  1  0.84160000  0.34558000  0.80704000  1.0
  C  C460  1  0.89966000  0.36173000  0.77682000  1.0
  C  C461  1  0.87477000  0.16560000  0.63735000  1.0
  C  C462  1  0.84199000  0.16176000  0.58449000  1.0
  C  C463  1  0.86299000  0.35330000  0.83679000  1.0
  C  C464  1  0.92103000  0.36927000  0.80645000  1.0
  C  C465  1  0.90022000  0.14635000  0.62377000  1.0
  C  C466  1  0.86739000  0.14210000  0.57085000  1.0
  C  C467  1  0.90298000  0.36455000  0.83670000  1.0
  C  C468  1  0.89737000  0.13506000  0.59025000  1.0
  C  C469  1  0.68633000  0.39487000  0.57294000  1.0
  C  C470  1  0.71142000  0.33998000  0.57309000  1.0
  C  C471  1  0.69045000  0.36190000  0.55754000  1.0
  C  C472  1  0.70216000  0.40463000  0.60482000  1.0
  C  C473  1  0.72310000  0.38270000  0.62037000  1.0
  C  C474  1  0.72827000  0.35018000  0.60451000  1.0
  C  C475  1  0.77288000  0.26126000  0.60445000  1.0
  C  C476  1  0.37072000  0.59845000  0.74970000  1.0
  C  C477  1  0.32626000  0.58367000  0.79702000  1.0
  C  C478  1  0.27748000  0.57150000  0.84194000  1.0
  C  C479  1  0.36066000  0.60465000  0.78504000  1.0
  C  C480  1  0.42551000  0.64864000  0.79573000  1.0
  C  C481  1  0.31601000  0.59065000  0.82973000  1.0
  C  C482  1  0.33691000  0.61553000  0.88814000  1.0
  C  C483  1  0.38559000  0.63093000  0.80628000  1.0
  C  C484  1  0.34199000  0.61558000  0.85119000  1.0
  C  C485  1  0.37391000  0.63915000  0.83820000  1.0
  C  C486  1  0.39517000  0.67331000  0.85793000  1.0
  C  C487  1  0.38111000  0.72446000  0.88210000  1.0
  C  C488  1  0.40235000  0.56387000  0.71894000  1.0
  C  C489  1  0.40901000  0.74081000  0.90598000  1.0
  C  C490  1  0.36440000  0.74598000  0.86216000  1.0
  C  C491  1  0.44211000  0.57124000  0.72094000  1.0
  C  C492  1  0.38301000  0.55403000  0.68858000  1.0
  C  C493  1  0.42145000  0.77862000  0.90888000  1.0
  C  C494  1  0.37635000  0.78378000  0.86531000  1.0
  C  C495  1  0.46269000  0.56901000  0.69268000  1.0
  C  C496  1  0.40353000  0.55303000  0.66004000  1.0
  C  C497  1  0.40546000  0.80049000  0.88833000  1.0
  C  C498  1  0.44374000  0.56027000  0.66174000  1.0
  C  C499  1  0.16856000  0.53163000  0.90497000  1.0
  C  C500  1  0.23652000  0.55708000  0.90424000  1.0
  C  C501  1  0.20555000  0.53428000  0.91787000  1.0
  C  C502  1  0.16280000  0.55320000  0.87909000  1.0
  C  C503  1  0.19396000  0.57574000  0.86521000  1.0
  C  C504  1  0.23095000  0.57678000  0.87702000  1.0
  C  C505  1  0.30068000  0.55314000  0.77550000  1.0
  C  C506  1  0.59185000  0.82729000  0.24301000  1.0
  C  C507  1  0.60148000  0.77891000  0.28240000  1.0
  C  C508  1  0.60987000  0.72960000  0.32164000  1.0
  C  C509  1  0.61678000  0.81183000  0.26684000  1.0
  C  C510  1  0.67369000  0.86347000  0.25554000  1.0
  C  C511  1  0.62535000  0.76444000  0.30406000  1.0
  C  C512  1  0.68885000  0.77013000  0.33545000  1.0
  C  C513  1  0.65473000  0.83139000  0.27497000  1.0
  C  C514  1  0.66272000  0.78531000  0.31287000  1.0
  C  C515  1  0.67522000  0.82069000  0.30128000  1.0
  C  C516  1  0.70825000  0.84793000  0.31909000  1.0
  C  C517  1  0.73155000  0.87123000  0.37031000  1.0
  C  C518  1  0.57990000  0.82945000  0.18791000  1.0
  C  C519  1  0.76115000  0.85806000  0.38452000  1.0
  C  C520  1  0.72959000  0.90737000  0.37731000  1.0
  C  C521  1  0.60875000  0.85069000  0.17011000  1.0
  C  C522  1  0.54169000  0.83040000  0.18131000  1.0
  C  C523  1  0.78750000  0.88034000  0.40685000  1.0
  C  C524  1  0.75615000  0.92983000  0.39915000  1.0
  C  C525  1  0.59996000  0.87479000  0.14791000  1.0
  C  C526  1  0.53280000  0.85459000  0.15902000  1.0
  C  C527  1  0.78452000  0.91620000  0.41532000  1.0
  C  C528  1  0.56204000  0.87760000  0.14280000  1.0
  C  C529  1  0.57630000  0.66885000  0.42728000  1.0
  C  C530  1  0.56562000  0.67992000  0.36991000  1.0
  C  C531  1  0.55831000  0.65737000  0.39639000  1.0
  C  C532  1  0.60384000  0.70189000  0.43049000  1.0
  C  C533  1  0.61096000  0.72439000  0.40410000  1.0
  C  C534  1  0.59141000  0.71397000  0.37387000  1.0
  C  C535  1  0.55928000  0.76104000  0.27640000  1.0
  C  C536  1  0.99507000  0.92232000  0.44683000  1.0
  C  C537  1  0.04660000  0.03821000  0.51016000  1.0
  C  C538  1  0.95315000  0.92047000  0.56178000  1.0
  C  C539  1  0.96385000  0.04799000  0.52661000  1.0
  C  C540  1  0.90766000  0.95531000  0.48212000  1.0
  C  C541  1  0.02047000  0.04913000  0.41231000  1.0
  C  C542  1  0.96453000  0.42369000  0.94551000  1.0
  C  C543  1  0.03973000  0.50702000  0.95130000  1.0
  C  C544  1  0.07378000  0.42838000  0.03707000  1.0
  C  C545  1  0.01944000  0.54724000  0.03741000  1.0
  C  C546  1  0.94294000  0.46435000  0.03295000  1.0
  C  C547  1  0.90486000  0.53869000  0.94882000  1.0
  C  C548  1  0.52038000  0.55584000  0.48482000  1.0
  C  C549  1  0.45644000  0.50414000  0.55003000  1.0
  C  C550  1  0.59075000  0.45601000  0.51774000  1.0
  C  C551  1  0.44748000  0.40456000  0.50140000  1.0
  C  C552  1  0.51616000  0.46066000  0.43637000  1.0
  C  C553  1  0.37852000  0.51104000  0.47454000  1.0
  C  C554  1  0.45451000  0.91738000  0.95408000  1.0
  C  C555  1  0.52016000  0.94160000  0.04712000  1.0
  C  C556  1  0.41533000  0.02235000  0.99455000  1.0
  C  C557  1  0.53296000  0.05069000  0.03271000  1.0
  C  C558  1  0.49863000  0.02093000  0.93123000  1.0
  C  C559  1  0.57939000  0.97250000  0.96190000  1.0
  C  C560  1  0.93762000  0.82256000  0.58162000  1.0
  C  C561  1  0.91577000  0.82147000  0.60967000  1.0
  C  C562  1  0.90666000  0.85324000  0.62347000  1.0
  C  C563  1  0.91996000  0.88653000  0.60858000  1.0
  C  C564  1  0.94217000  0.88762000  0.58040000  1.0
  C  C565  1  0.95080000  0.85561000  0.56717000  1.0
  C  C566  1  0.04098000  0.64576000  0.06975000  1.0
  C  C567  1  0.05794000  0.64422000  0.10059000  1.0
  C  C568  1  0.06375000  0.61113000  0.11176000  1.0
  C  C569  1  0.05101000  0.57894000  0.09123000  1.0
  C  C570  1  0.03342000  0.58025000  0.05996000  1.0
  C  C571  1  0.02899000  0.61407000  0.04967000  1.0
  C  C572  1  0.47711000  0.46390000  0.35036000  1.0
  C  C573  1  0.50320000  0.44960000  0.33192000  1.0
  C  C574  1  0.53357000  0.43915000  0.34777000  1.0
  C  C575  1  0.53817000  0.44302000  0.38195000  1.0
  C  C576  1  0.51196000  0.45685000  0.40052000  1.0
  C  C577  1  0.48135000  0.46720000  0.38465000  1.0
  C  C578  1  0.55045000  0.04479000  0.85292000  1.0
  C  C579  1  0.52387000  0.05817000  0.83485000  1.0
  C  C580  1  0.48845000  0.05985000  0.84785000  1.0
  C  C581  1  0.47962000  0.04773000  0.87953000  1.0
  C  C582  1  0.50676000  0.03484000  0.89821000  1.0
  C  C583  1  0.54209000  0.03366000  0.88459000  1.0
  C  C584  1  0.80183000  0.54352000  0.94066000  1.0
  C  C585  1  0.80356000  0.57140000  0.91915000  1.0
  C  C586  1  0.83864000  0.58951000  0.90683000  1.0
  C  C587  1  0.87236000  0.57913000  0.91653000  1.0
  C  C588  1  0.87067000  0.55101000  0.93820000  1.0
  C  C589  1  0.83526000  0.53351000  0.95013000  1.0
  C  C590  1  0.95587000  0.85482000  0.37729000  1.0
  C  C591  1  0.98229000  0.83292000  0.37560000  1.0
  C  C592  1  0.01282000  0.83758000  0.39887000  1.0
  C  C593  1  0.01705000  0.86628000  0.42368000  1.0
  C  C594  1  0.99064000  0.88903000  0.42488000  1.0
  C  C595  1  0.96014000  0.88260000  0.40180000  1.0
  C  C596  1  0.51699000  0.08274000  0.11817000  1.0
  C  C597  1  0.54181000  0.11703000  0.12069000  1.0
  C  C598  1  0.56591000  0.12895000  0.09484000  1.0
  C  C599  1  0.56567000  0.10642000  0.06641000  1.0
  C  C600  1  0.54042000  0.07229000  0.06374000  1.0
  C  C601  1  0.51601000  0.06073000  0.08953000  1.0
  C  C602  1  0.42807000  0.30875000  0.46572000  1.0
  C  C603  1  0.41634000  0.28878000  0.49313000  1.0
  C  C604  1  0.41290000  0.30651000  0.52375000  1.0
  C  C605  1  0.42174000  0.34491000  0.52663000  1.0
  C  C606  1  0.43251000  0.36499000  0.49883000  1.0
  C  C607  1  0.43559000  0.34675000  0.46857000  1.0
  C  C608  1  0.66783000  0.00691000  0.91491000  1.0
  C  C609  1  0.67687000  0.97455000  0.90352000  1.0
  C  C610  1  0.65518000  0.94073000  0.91213000  1.0
  C  C611  1  0.62441000  0.93949000  0.93330000  1.0
  C  C612  1  0.61472000  0.97217000  0.94435000  1.0
  C  C613  1  0.63648000  0.00562000  0.93488000  1.0
  C  C614  1  0.87861000  0.52843000  0.05229000  1.0
  C  C615  1  0.84859000  0.50514000  0.06705000  1.0
  C  C616  1  0.84932000  0.46843000  0.07041000  1.0
  C  C617  1  0.88041000  0.45532000  0.05881000  1.0
  C  C618  1  0.91043000  0.47846000  0.04420000  1.0
  C  C619  1  0.90963000  0.51508000  0.04137000  1.0
  C  C620  1  0.13359000  0.11291000  0.49934000  1.0
  C  C621  1  0.16007000  0.10440000  0.52112000  1.0
  C  C622  1  0.15027000  0.07387000  0.54029000  1.0
  C  C623  1  0.11299000  0.05149000  0.53741000  1.0
  C  C624  1  0.08611000  0.06008000  0.51537000  1.0
  C  C625  1  0.09693000  0.09101000  0.49669000  1.0
  C  C626  1  0.31526000  0.57450000  0.49895000  1.0
  C  C627  1  0.29949000  0.58094000  0.46894000  1.0
  C  C628  1  0.30746000  0.56353000  0.43955000  1.0
  C  C629  1  0.33232000  0.53916000  0.44056000  1.0
  C  C630  1  0.34863000  0.53257000  0.47113000  1.0
  C  C631  1  0.33930000  0.55032000  0.49996000  1.0
  C  C632  1  0.04697000  0.14866000  0.39798000  1.0
  C  C633  1  0.06970000  0.14917000  0.37051000  1.0
  C  C634  1  0.07557000  0.11657000  0.35560000  1.0
  C  C635  1  0.05836000  0.08321000  0.36860000  1.0
  C  C636  1  0.03496000  0.08264000  0.39572000  1.0
  C  C637  1  0.02923000  0.11534000  0.41023000  1.0
  C  C638  1  0.96779000  0.33524000  0.89830000  1.0
  C  C639  1  0.94468000  0.33616000  0.87060000  1.0
  C  C640  1  0.92631000  0.36482000  0.86717000  1.0
  C  C641  1  0.93147000  0.39314000  0.89202000  1.0
  C  C642  1  0.95533000  0.39280000  0.92006000  1.0
  C  C643  1  0.97313000  0.36339000  0.92274000  1.0
  C  C644  1  0.52569000  0.57415000  0.60304000  1.0
  C  C645  1  0.50315000  0.57922000  0.62961000  1.0
  C  C646  1  0.46595000  0.55748000  0.63178000  1.0
  C  C647  1  0.45075000  0.53223000  0.60562000  1.0
  C  C648  1  0.47287000  0.52781000  0.57867000  1.0
  C  C649  1  0.51062000  0.54818000  0.57784000  1.0
  C  C650  1  0.56368000  0.97570000  0.13054000  1.0
  C  C651  1  0.56734000  0.94368000  0.14444000  1.0
  C  C652  1  0.55479000  0.90988000  0.12713000  1.0
  C  C653  1  0.53779000  0.90810000  0.09538000  1.0
  C  C654  1  0.53322000  0.94037000  0.08152000  1.0
  C  C655  1  0.54628000  0.97390000  0.09935000  1.0
  C  C656  1  0.17387000  0.41499000  0.04606000  1.0
  C  C657  1  0.16797000  0.38181000  0.06096000  1.0
  C  C658  1  0.13119000  0.36378000  0.06952000  1.0
  C  C659  1  0.09995000  0.37945000  0.06324000  1.0
  C  C660  1  0.10566000  0.41243000  0.04739000  1.0
  C  C661  1  0.14275000  0.42995000  0.03902000  1.0
  C  C662  1  0.99748000  0.14443000  0.56137000  1.0
  C  C663  1  0.96480000  0.15153000  0.57544000  1.0
  C  C664  1  0.93069000  0.12463000  0.57485000  1.0
  C  C665  1  0.92954000  0.08973000  0.55968000  1.0
  C  C666  1  0.96285000  0.08236000  0.54561000  1.0
  C  C667  1  0.99651000  0.10999000  0.54695000  1.0
  C  C668  1  0.43729000  0.89793000  0.86361000  1.0
  C  C669  1  0.42396000  0.86005000  0.86172000  1.0
  C  C670  1  0.41938000  0.84053000  0.89051000  1.0
  C  C671  1  0.42873000  0.85942000  0.92125000  1.0
  C  C672  1  0.44183000  0.89715000  0.92304000  1.0
  C  C673  1  0.44589000  0.91635000  0.89431000  1.0
  C  C674  1  0.52981000  0.65416000  0.50912000  1.0
  C  C675  1  0.54925000  0.67100000  0.48271000  1.0
  C  C676  1  0.56136000  0.65030000  0.45710000  1.0
  C  C677  1  0.55439000  0.61217000  0.45862000  1.0
  C  C678  1  0.53538000  0.59528000  0.48547000  1.0
  C  C679  1  0.52311000  0.61641000  0.51047000  1.0
  C  C680  1  0.38207000  0.10881000  0.98483000  1.0
  C  C681  1  0.36060000  0.11037000  0.01273000  1.0
  C  C682  1  0.35431000  0.08189000  0.03427000  1.0
  C  C683  1  0.37013000  0.05143000  0.02763000  1.0
  C  C684  1  0.39228000  0.04991000  0.99963000  1.0
  C  C685  1  0.39747000  0.07857000  0.97820000  1.0
  C  C686  1  0.10806000  0.44596000  0.93681000  1.0
  C  C687  1  0.13854000  0.47010000  0.92350000  1.0
  C  C688  1  0.13619000  0.50606000  0.91835000  1.0
  C  C689  1  0.10316000  0.51775000  0.92668000  1.0
  C  C690  1  0.07308000  0.49400000  0.94073000  1.0
  C  C691  1  0.07530000  0.45796000  0.94509000  1.0
  C  C692  1  0.81401000  0.98202000  0.48995000  1.0
  C  C693  1  0.79241000  0.96115000  0.46392000  1.0
  C  C694  1  0.80844000  0.93832000  0.44274000  1.0
  C  C695  1  0.84657000  0.93612000  0.44882000  1.0
  C  C696  1  0.86787000  0.95642000  0.47547000  1.0
  C  C697  1  0.85161000  0.97946000  0.49572000  1.0
  C  C698  1  0.69800000  0.47318000  0.51748000  1.0
  C  C699  1  0.70554000  0.44714000  0.53821000  1.0
  C  C700  1  0.67576000  0.42302000  0.55274000  1.0
  C  C701  1  0.63764000  0.42573000  0.54671000  1.0
  C  C702  1  0.62989000  0.45180000  0.52531000  1.0
  C  C703  1  0.66028000  0.47499000  0.51065000  1.0
  S  S704  1  0.94672000  0.78224000  0.56338000  1.0
  S  S705  1  0.03587000  0.68773000  0.05548000  1.0
  S  S706  1  0.43851000  0.47663000  0.33075000  1.0
  S  S707  1  0.59417000  0.04178000  0.83568000  1.0
  S  S708  1  0.75761000  0.52029000  0.95502000  1.0
  S  S709  1  0.91813000  0.84805000  0.34775000  1.0
  S  S710  1  0.48540000  0.06821000  0.14975000  1.0
  S  S711  1  0.43556000  0.28597000  0.42849000  1.0
  S  S712  1  0.69546000  0.04875000  0.90309000  1.0
  S  S713  1  0.87801000  0.57452000  0.04838000  1.0
  S  S714  1  0.14614000  0.15047000  0.47458000  1.0
  S  S715  1  0.30696000  0.59885000  0.53504000  1.0
  S  S716  1  0.04154000  0.18986000  0.41730000  1.0
  S  S717  1  0.99163000  0.29962000  0.90168000  1.0
  S  S718  1  0.57258000  0.60067000  0.60112000  1.0
  S  S719  1  0.58306000  0.01789000  0.15178000  1.0
  S  S720  1  0.22008000  0.43696000  0.03497000  1.0
  S  S721  1  0.03966000  0.17890000  0.56149000  1.0
  S  S722  1  0.44398000  0.92268000  0.82788000  1.0
  S  S723  1  0.50946000  0.67989000  0.53795000  1.0
  S  S724  1  0.39259000  0.14616000  0.95971000  1.0
  S  S725  1  0.11106000  0.40083000  0.94297000  1.0
  S  S726  1  0.79376000  0.01082000  0.51585000  1.0
  S  S727  1  0.73595000  0.50305000  0.49953000  1.0
  O  O728  1  0.83021000  0.70899000  0.83029000  1.0
  O  O729  1  0.82674000  0.83282000  0.74338000  1.0
  O  O730  1  0.73076000  0.84322000  0.85040000  1.0
  O  O731  1  0.11217000  0.73955000  0.37999000  1.0
  O  O732  1  0.21971000  0.61405000  0.34202000  1.0
  O  O733  1  0.12982000  0.62131000  0.24195000  1.0
  O  O734  1  0.63154000  0.37410000  0.27247000  1.0
  O  O735  1  0.73007000  0.37695000  0.13473000  1.0
  O  O736  1  0.64428000  0.26992000  0.13287000  1.0
  O  O737  1  0.41356000  0.09995000  0.74000000  1.0
  O  O738  1  0.36607000  0.21482000  0.62951000  1.0
  O  O739  1  0.27063000  0.10717000  0.63040000  1.0
  O  O740  1  0.13405000  0.23129000  0.12696000  1.0
  O  O741  1  0.16515000  0.13042000  0.24167000  1.0
  O  O742  1  0.25603000  0.11151000  0.13293000  1.0
  O  O743  1  0.82186000  0.19491000  0.63109000  1.0
  O  O744  1  0.75489000  0.33187000  0.61639000  1.0
  O  O745  1  0.83927000  0.33910000  0.74733000  1.0
  O  O746  1  0.38244000  0.56521000  0.74716000  1.0
  O  O747  1  0.26171000  0.59633000  0.86119000  1.0
  O  O748  1  0.36965000  0.68718000  0.87831000  1.0
  O  O749  1  0.58933000  0.80803000  0.21191000  1.0
  O  O750  1  0.59312000  0.73974000  0.35068000  1.0
  O  O751  1  0.70175000  0.84766000  0.35318000  1.0
  O  O752  1  0.99000000  0.92047000  0.47891000  1.0
  O  O753  1  0.03738000  0.00244000  0.50429000  1.0
  O  O754  1  0.02233000  0.05355000  0.49493000  1.0
  O  O755  1  0.99577000  0.95287000  0.43248000  1.0
  O  O756  1  0.93048000  0.92775000  0.53853000  1.0
  O  O757  1  0.98887000  0.93808000  0.55875000  1.0
  O  O758  1  0.97962000  0.05183000  0.49671000  1.0
  O  O759  1  0.93441000  0.98492000  0.47858000  1.0
  O  O760  1  0.91586000  0.93638000  0.50633000  1.0
  O  O761  1  0.96185000  0.01716000  0.54174000  1.0
  O  O762  1  0.04275000  0.03614000  0.43196000  1.0
  O  O763  1  0.98415000  0.03748000  0.41847000  1.0
  O  O764  1  0.98738000  0.41942000  0.97140000  1.0
  O  O765  1  0.02123000  0.49922000  0.97711000  1.0
  O  O766  1  0.01844000  0.52203000  0.93356000  1.0
  O  O767  1  0.95124000  0.45390000  0.93988000  1.0
  O  O768  1  0.03882000  0.42037000  0.04762000  1.0
  O  O769  1  0.07778000  0.45277000  0.01512000  1.0
  O  O770  1  0.99565000  0.55115000  0.01201000  1.0
  O  O771  1  0.96075000  0.47105000  0.00660000  1.0
  O  O772  1  0.96462000  0.44989000  0.05081000  1.0
  O  O773  1  0.03190000  0.51673000  0.04356000  1.0
  O  O774  1  0.93886000  0.54757000  0.93652000  1.0
  O  O775  1  0.90379000  0.51552000  0.97152000  1.0
  O  O776  1  0.54347000  0.53421000  0.49364000  1.0
  O  O777  1  0.47764000  0.49081000  0.52973000  1.0
  O  O778  1  0.42482000  0.50679000  0.53434000  1.0
  O  O779  1  0.48253000  0.54500000  0.47951000  1.0
  O  O780  1  0.57673000  0.45535000  0.48739000  1.0
  O  O781  1  0.56877000  0.46681000  0.53982000  1.0
  O  O782  1  0.42436000  0.42638000  0.49283000  1.0
  O  O783  1  0.49062000  0.47064000  0.45478000  1.0
  O  O784  1  0.54619000  0.45640000  0.45364000  1.0
  O  O785  1  0.48542000  0.41531000  0.50655000  1.0
  O  O786  1  0.39467000  0.50817000  0.50341000  1.0
  O  O787  1  0.39669000  0.49871000  0.45017000  1.0
  O  O788  1  0.43745000  0.94175000  0.96487000  1.0
  O  O789  1  0.49033000  0.95526000  0.04008000  1.0
  O  O790  1  0.54505000  0.94544000  0.02386000  1.0
  O  O791  1  0.48993000  0.92370000  0.96309000  1.0
  O  O792  1  0.43879000  0.02355000  0.97012000  1.0
  O  O793  1  0.42329000  0.00146000  0.01719000  1.0
  O  O794  1  0.55027000  0.02526000  0.02514000  1.0
  O  O795  1  0.52178000  0.00490000  0.94717000  1.0
  O  O796  1  0.46754000  0.02144000  0.94713000  1.0
  O  O797  1  0.49912000  0.04473000  0.02035000  1.0
  O  O798  1  0.56823000  0.95598000  0.98869000  1.0
  O  O799  1  0.55554000  0.99183000  0.95280000  1.0
  O  O800  1  0.94461000  0.75304000  0.58966000  1.0
  O  O801  1  0.98762000  0.79034000  0.54894000  1.0
  O  O802  1  0.91629000  0.76708000  0.53511000  1.0
  O  O803  1  0.03324000  0.71488000  0.08524000  1.0
  O  O804  1  0.99847000  0.68182000  0.03355000  1.0
  O  O805  1  0.07114000  0.70420000  0.03470000  1.0
  O  O806  1  0.44953000  0.48851000  0.29529000  1.0
  O  O807  1  0.42828000  0.50947000  0.35076000  1.0
  O  O808  1  0.40309000  0.44360000  0.32854000  1.0
  O  O809  1  0.61038000  0.01173000  0.85237000  1.0
  O  O810  1  0.62339000  0.07938000  0.84101000  1.0
  O  O811  1  0.58789000  0.03119000  0.79798000  1.0
  O  O812  1  0.72952000  0.54645000  0.95729000  1.0
  O  O813  1  0.76330000  0.50668000  0.99005000  1.0
  O  O814  1  0.74022000  0.48687000  0.93075000  1.0
  O  O815  1  0.93457000  0.85917000  0.31352000  1.0
  O  O816  1  0.88911000  0.87174000  0.35765000  1.0
  O  O817  1  0.89667000  0.80695000  0.34547000  1.0
  O  O818  1  0.50389000  0.08514000  0.18377000  1.0
  O  O819  1  0.47670000  0.02569000  0.15042000  1.0
  O  O820  1  0.44728000  0.08057000  0.14352000  1.0
  O  O821  1  0.46626000  0.26328000  0.43446000  1.0
  O  O822  1  0.45016000  0.31401000  0.40193000  1.0
  O  O823  1  0.39717000  0.25995000  0.41561000  1.0
  O  O824  1  0.73701000  0.05449000  0.91794000  1.0
  O  O825  1  0.67781000  0.08099000  0.91584000  1.0
  O  O826  1  0.69665000  0.04836000  0.86468000  1.0
  O  O827  1  0.83578000  0.57861000  0.04472000  1.0
  O  O828  1  0.89987000  0.58889000  0.01711000  1.0
  O  O829  1  0.89772000  0.59756000  0.07962000  1.0
  O  O830  1  0.18508000  0.17581000  0.48714000  1.0
  O  O831  1  0.11455000  0.17295000  0.47598000  1.0
  O  O832  1  0.14988000  0.13649000  0.43823000  1.0
  O  O833  1  0.33391000  0.63784000  0.53657000  1.0
  O  O834  1  0.31508000  0.57860000  0.56608000  1.0
  O  O835  1  0.26432000  0.60208000  0.53497000  1.0
  O  O836  1  0.08084000  0.21823000  0.41879000  1.0
  O  O837  1  0.02784000  0.18362000  0.45325000  1.0
  O  O838  1  0.01143000  0.20496000  0.39735000  1.0
  O  O839  1  0.96657000  0.26351000  0.88508000  1.0
  O  O840  1  0.99889000  0.29359000  0.93880000  1.0
  O  O841  1  0.03075000  0.30956000  0.88428000  1.0
  O  O842  1  0.57196000  0.63709000  0.58464000  1.0
  O  O843  1  0.59745000  0.57917000  0.58052000  1.0
  O  O844  1  0.59080000  0.60941000  0.63668000  1.0
  O  O845  1  0.55555000  0.02514000  0.17932000  1.0
  O  O846  1  0.58906000  0.04940000  0.12754000  1.0
  O  O847  1  0.62278000  0.01702000  0.16776000  1.0
  O  O848  1  0.24961000  0.43401000  0.06287000  1.0
  O  O849  1  0.22201000  0.47822000  0.03012000  1.0
  O  O850  1  0.23030000  0.41852000  0.00213000  1.0
  O  O851  1  0.02946000  0.21677000  0.55816000  1.0
  O  O852  1  0.06435000  0.17167000  0.53174000  1.0
  O  O853  1  0.06308000  0.17937000  0.59437000  1.0
  O  O854  1  0.44059000  0.89615000  0.79658000  1.0
  O  O855  1  0.48467000  0.94880000  0.82961000  1.0
  O  O856  1  0.41291000  0.94559000  0.82537000  1.0
  O  O857  1  0.53865000  0.71657000  0.54787000  1.0
  O  O858  1  0.49886000  0.65828000  0.56955000  1.0
  O  O859  1  0.47243000  0.68808000  0.52226000  1.0
  O  O860  1  0.36017000  0.16768000  0.96154000  1.0
  O  O861  1  0.39565000  0.13243000  0.92316000  1.0
  O  O862  1  0.43143000  0.17199000  0.97181000  1.0
  O  O863  1  0.10535000  0.37834000  0.90917000  1.0
  O  O864  1  0.07956000  0.38270000  0.96678000  1.0
  O  O865  1  0.15120000  0.40082000  0.95856000  1.0
  O  O866  1  0.76226000  0.02443000  0.49630000  1.0
  O  O867  1  0.82535000  0.04471000  0.52876000  1.0
  O  O868  1  0.77554000  0.98944000  0.54569000  1.0
  O  O869  1  0.77188000  0.51153000  0.52346000  1.0
  O  O870  1  0.72440000  0.53967000  0.49283000  1.0
  O  O871  1  0.74581000  0.48501000  0.46637000  1.0
