# generated using pymatgen
data_CoH12C32(NO2)2
_symmetry_space_group_name_H-M   'P 1'
_cell_length_a   33.16900000
_cell_length_b   48.65020000
_cell_length_c   49.56652548
_cell_angle_alpha   61.80017920
_cell_angle_beta   83.38881024
_cell_angle_gamma   86.69100000
_symmetry_Int_Tables_number   1
_chemical_formula_structural   CoH12C32(NO2)2
_chemical_formula_sum   'Co18 H216 C576 N36 O72'
_cell_volume   70021.43334412
_cell_formula_units_Z   18
loop_
 _symmetry_equiv_pos_site_id
 _symmetry_equiv_pos_as_xyz
  1  'x, y, z'
loop_
 _atom_site_type_symbol
 _atom_site_label
 _atom_site_symmetry_multiplicity
 _atom_site_fract_x
 _atom_site_fract_y
 _atom_site_fract_z
 _atom_site_occupancy
  Co  Co0  1  0.92918000  0.15137000  0.11073000  1.0
  Co  Co1  1  0.42996000  0.15169000  0.11018000  1.0
  Co  Co2  1  0.93165000  0.97412000  0.93780000  1.0
  Co  Co3  1  0.93218000  0.80726000  0.27520000  1.0
  Co  Co4  1  0.76809000  0.81786000  0.77636000  1.0
  Co  Co5  1  0.76443000  0.63897000  0.60470000  1.0
  Co  Co6  1  0.76559000  0.47440000  0.94293000  1.0
  Co  Co7  1  0.59973000  0.48425000  0.44236000  1.0
  Co  Co8  1  0.59761000  0.30613000  0.27119000  1.0
  Co  Co9  1  0.60016000  0.13992000  0.60909000  1.0
  Co  Co10  1  0.43211000  0.97360000  0.93807000  1.0
  Co  Co11  1  0.43377000  0.80712000  0.27538000  1.0
  Co  Co12  1  0.26846000  0.81819000  0.77599000  1.0
  Co  Co13  1  0.26478000  0.63920000  0.60456000  1.0
  Co  Co14  1  0.26570000  0.47471000  0.94284000  1.0
  Co  Co15  1  0.09925000  0.48464000  0.44232000  1.0
  Co  Co16  1  0.09709000  0.30652000  0.27100000  1.0
  Co  Co17  1  0.10041000  0.14024000  0.60886000  1.0
  H  H18  1  0.56840000  0.11794000  0.13916000  1.0
  H  H19  1  0.49814000  0.13080000  0.14856000  1.0
  H  H20  1  0.48268000  0.09136000  0.12281000  1.0
  H  H21  1  0.46816000  0.20517000  0.11017000  1.0
  H  H22  1  0.89023000  0.20789000  0.11007000  1.0
  H  H23  1  0.06735000  0.11737000  0.14031000  1.0
  H  H24  1  0.99699000  0.13021000  0.14942000  1.0
  H  H25  1  0.98166000  0.09088000  0.12356000  1.0
  H  H26  1  0.96759000  0.20467000  0.11079000  1.0
  H  H27  1  0.39072000  0.20803000  0.10967000  1.0
  H  H28  1  0.87741000  0.10680000  0.09865000  1.0
  H  H29  1  0.48505000  0.17473000  0.05276000  1.0
  H  H30  1  0.55509000  0.16071000  0.04206000  1.0
  H  H31  1  0.87403000  0.12430000  0.16801000  1.0
  H  H32  1  0.80600000  0.10215000  0.17860000  1.0
  H  H33  1  0.79223000  0.15307000  0.08155000  1.0
  H  H34  1  0.86077000  0.17275000  0.07224000  1.0
  H  H35  1  0.48556000  0.98792000  0.97904000  1.0
  H  H36  1  0.88106000  0.03093000  0.91907000  1.0
  H  H37  1  0.81152000  0.03988000  0.93617000  1.0
  H  H38  1  0.79021000  0.94082000  0.97911000  1.0
  H  H39  1  0.86023000  0.93318000  0.96304000  1.0
  H  H40  1  0.87893000  0.95826000  0.00132000  1.0
  H  H41  1  0.88592000  0.97375000  0.89190000  1.0
  H  H42  1  0.48294000  0.91702000  0.96045000  1.0
  H  H43  1  0.54889000  0.90804000  0.98084000  1.0
  H  H44  1  0.57074000  0.00710000  0.93080000  1.0
  H  H45  1  0.50405000  0.01473000  0.91254000  1.0
  H  H46  1  0.47017000  0.97489000  0.88110000  1.0
  H  H47  1  0.87573000  0.86429000  0.23605000  1.0
  H  H48  1  0.47847000  0.83441000  0.30478000  1.0
  H  H49  1  0.54352000  0.81876000  0.32653000  1.0
  H  H50  1  0.57570000  0.77621000  0.26786000  1.0
  H  H51  1  0.50972000  0.79121000  0.24806000  1.0
  H  H52  1  0.49002000  0.84912000  0.21463000  1.0
  H  H53  1  0.47601000  0.75755000  0.32393000  1.0
  H  H54  1  0.89013000  0.77161000  0.25294000  1.0
  H  H55  1  0.82347000  0.74683000  0.26911000  1.0
  H  H56  1  0.78690000  0.80634000  0.31019000  1.0
  H  H57  1  0.85451000  0.82923000  0.29469000  1.0
  H  H58  1  0.89033000  0.75504000  0.32797000  1.0
  H  H59  1  0.82048000  0.75706000  0.79011000  1.0
  H  H60  1  0.71306000  0.79171000  0.83362000  1.0
  H  H61  1  0.64509000  0.76941000  0.84472000  1.0
  H  H62  1  0.63119000  0.81845000  0.74762000  1.0
  H  H63  1  0.69964000  0.83850000  0.73785000  1.0
  H  H64  1  0.71678000  0.77242000  0.76565000  1.0
  H  H65  1  0.72941000  0.87476000  0.77497000  1.0
  H  H66  1  0.82382000  0.83980000  0.71928000  1.0
  H  H67  1  0.89374000  0.82494000  0.70944000  1.0
  H  H68  1  0.90595000  0.78389000  0.80658000  1.0
  H  H69  1  0.83573000  0.79732000  0.81520000  1.0
  H  H70  1  0.80690000  0.87129000  0.77588000  1.0
  H  H71  1  0.81779000  0.65486000  0.64338000  1.0
  H  H72  1  0.71208000  0.69449000  0.57899000  1.0
  H  H73  1  0.64731000  0.70029000  0.55783000  1.0
  H  H74  1  0.62806000  0.60134000  0.61369000  1.0
  H  H75  1  0.69358000  0.59684000  0.63294000  1.0
  H  H76  1  0.70870000  0.62113000  0.66655000  1.0
  H  H77  1  0.72568000  0.63850000  0.55445000  1.0
  H  H78  1  0.81635000  0.58341000  0.62244000  1.0
  H  H79  1  0.88612000  0.57626000  0.60462000  1.0
  H  H80  1  0.90581000  0.67498000  0.56726000  1.0
  H  H81  1  0.83549000  0.68092000  0.58430000  1.0
  H  H82  1  0.80597000  0.64087000  0.54805000  1.0
  H  H83  1  0.81687000  0.52061000  0.88017000  1.0
  H  H84  1  0.72184000  0.44216000  0.91769000  1.0
  H  H85  1  0.65623000  0.45472000  0.89652000  1.0
  H  H86  1  0.62278000  0.50344000  0.94935000  1.0
  H  H87  1  0.68914000  0.49132000  0.96865000  1.0
  H  H88  1  0.70939000  0.53256000  0.90270000  1.0
  H  H89  1  0.72686000  0.42151000  0.99623000  1.0
  H  H90  1  0.80952000  0.50985000  0.96492000  1.0
  H  H91  1  0.87626000  0.53488000  0.94824000  1.0
  H  H92  1  0.90882000  0.48066000  0.90080000  1.0
  H  H93  1  0.84127000  0.45776000  0.91672000  1.0
  H  H94  1  0.82010000  0.42923000  0.98340000  1.0
  H  H95  1  0.54750000  0.44031000  0.43016000  1.0
  H  H96  1  0.65572000  0.50718000  0.38542000  1.0
  H  H97  1  0.72550000  0.49240000  0.37516000  1.0
  H  H98  1  0.73720000  0.44809000  0.47255000  1.0
  H  H99  1  0.66721000  0.46197000  0.48148000  1.0
  H  H100  1  0.65084000  0.42352000  0.45465000  1.0
  H  H101  1  0.63919000  0.53676000  0.44306000  1.0
  H  H102  1  0.54370000  0.45698000  0.49921000  1.0
  H  H103  1  0.47591000  0.43475000  0.50871000  1.0
  H  H104  1  0.46368000  0.48723000  0.41151000  1.0
  H  H105  1  0.53201000  0.50681000  0.40324000  1.0
  H  H106  1  0.56264000  0.54179000  0.44149000  1.0
  H  H107  1  0.65255000  0.32144000  0.31064000  1.0
  H  H108  1  0.54555000  0.36226000  0.25390000  1.0
  H  H109  1  0.47620000  0.37009000  0.27235000  1.0
  H  H110  1  0.45747000  0.27073000  0.31564000  1.0
  H  H111  1  0.52726000  0.26418000  0.29821000  1.0
  H  H112  1  0.54725000  0.29105000  0.33499000  1.0
  H  H113  1  0.54859000  0.30461000  0.22795000  1.0
  H  H114  1  0.64882000  0.24982000  0.29286000  1.0
  H  H115  1  0.71464000  0.24128000  0.31327000  1.0
  H  H116  1  0.73615000  0.34034000  0.26233000  1.0
  H  H117  1  0.66948000  0.34755000  0.24409000  1.0
  H  H118  1  0.63319000  0.30734000  0.21325000  1.0
  H  H119  1  0.54441000  0.19703000  0.56967000  1.0
  H  H120  1  0.64403000  0.16863000  0.63753000  1.0
  H  H121  1  0.70938000  0.15440000  0.65892000  1.0
  H  H122  1  0.74273000  0.11038000  0.60169000  1.0
  H  H123  1  0.67654000  0.12425000  0.58202000  1.0
  H  H124  1  0.65665000  0.18154000  0.54821000  1.0
  H  H125  1  0.64350000  0.09102000  0.65733000  1.0
  H  H126  1  0.55661000  0.10399000  0.58791000  1.0
  H  H127  1  0.48960000  0.07975000  0.60489000  1.0
  H  H128  1  0.45549000  0.14059000  0.64484000  1.0
  H  H129  1  0.52342000  0.16286000  0.62863000  1.0
  H  H130  1  0.55862000  0.08796000  0.66251000  1.0
  H  H131  1  0.37814000  0.10697000  0.09830000  1.0
  H  H132  1  0.98468000  0.17424000  0.05351000  1.0
  H  H133  1  0.05485000  0.16028000  0.04309000  1.0
  H  H134  1  0.37519000  0.12448000  0.16764000  1.0
  H  H135  1  0.30708000  0.10240000  0.17852000  1.0
  H  H136  1  0.29269000  0.15317000  0.08156000  1.0
  H  H137  1  0.36128000  0.17286000  0.07196000  1.0
  H  H138  1  0.98516000  0.98827000  0.97890000  1.0
  H  H139  1  0.38101000  0.03014000  0.91958000  1.0
  H  H140  1  0.31135000  0.03873000  0.93675000  1.0
  H  H141  1  0.29093000  0.93957000  0.97978000  1.0
  H  H142  1  0.36104000  0.93227000  0.96357000  1.0
  H  H143  1  0.37971000  0.95765000  0.00163000  1.0
  H  H144  1  0.38608000  0.97307000  0.89250000  1.0
  H  H145  1  0.98198000  0.91725000  0.96035000  1.0
  H  H146  1  0.04800000  0.90787000  0.98070000  1.0
  H  H147  1  0.07061000  0.00683000  0.93091000  1.0
  H  H148  1  0.00393000  0.01485000  0.91255000  1.0
  H  H149  1  0.96988000  0.97528000  0.88093000  1.0
  H  H150  1  0.37820000  0.86450000  0.23655000  1.0
  H  H151  1  0.97468000  0.83591000  0.30440000  1.0
  H  H152  1  0.03981000  0.82207000  0.32613000  1.0
  H  H153  1  0.07541000  0.77912000  0.26822000  1.0
  H  H154  1  0.00934000  0.79247000  0.24830000  1.0
  H  H155  1  0.98848000  0.84996000  0.21458000  1.0
  H  H156  1  0.97639000  0.75877000  0.32301000  1.0
  H  H157  1  0.38935000  0.77229000  0.25348000  1.0
  H  H158  1  0.32161000  0.74920000  0.26961000  1.0
  H  H159  1  0.28910000  0.80957000  0.31033000  1.0
  H  H160  1  0.35764000  0.83070000  0.29492000  1.0
  H  H161  1  0.39067000  0.75594000  0.32803000  1.0
  H  H162  1  0.32067000  0.75733000  0.78978000  1.0
  H  H163  1  0.21321000  0.79204000  0.83313000  1.0
  H  H164  1  0.14520000  0.76987000  0.84403000  1.0
  H  H165  1  0.13171000  0.81906000  0.74687000  1.0
  H  H166  1  0.20020000  0.83899000  0.73730000  1.0
  H  H167  1  0.21712000  0.77286000  0.76513000  1.0
  H  H168  1  0.22996000  0.87524000  0.77452000  1.0
  H  H169  1  0.32442000  0.84003000  0.71903000  1.0
  H  H170  1  0.39428000  0.82492000  0.70937000  1.0
  H  H171  1  0.40609000  0.78387000  0.80657000  1.0
  H  H172  1  0.33592000  0.79751000  0.81500000  1.0
  H  H173  1  0.30715000  0.87162000  0.77568000  1.0
  H  H174  1  0.31852000  0.65504000  0.64319000  1.0
  H  H175  1  0.21298000  0.69503000  0.57889000  1.0
  H  H176  1  0.14806000  0.70129000  0.55780000  1.0
  H  H177  1  0.12788000  0.60243000  0.61359000  1.0
  H  H178  1  0.19354000  0.59748000  0.63278000  1.0
  H  H179  1  0.20911000  0.62166000  0.66641000  1.0
  H  H180  1  0.22543000  0.63886000  0.55456000  1.0
  H  H181  1  0.31609000  0.58333000  0.62236000  1.0
  H  H182  1  0.38565000  0.57575000  0.60452000  1.0
  H  H183  1  0.40650000  0.67433000  0.56711000  1.0
  H  H184  1  0.33635000  0.68071000  0.58417000  1.0
  H  H185  1  0.30571000  0.64091000  0.54768000  1.0
  H  H186  1  0.31718000  0.52106000  0.88009000  1.0
  H  H187  1  0.22268000  0.44220000  0.91751000  1.0
  H  H188  1  0.15722000  0.45444000  0.89610000  1.0
  H  H189  1  0.12262000  0.50332000  0.94862000  1.0
  H  H190  1  0.18882000  0.49149000  0.96820000  1.0
  H  H191  1  0.20946000  0.53284000  0.90236000  1.0
  H  H192  1  0.22693000  0.42171000  0.99608000  1.0
  H  H193  1  0.30888000  0.51026000  0.96510000  1.0
  H  H194  1  0.37546000  0.53550000  0.94877000  1.0
  H  H195  1  0.40923000  0.48156000  0.90119000  1.0
  H  H196  1  0.34182000  0.45839000  0.91683000  1.0
  H  H197  1  0.32026000  0.42965000  0.98347000  1.0
  H  H198  1  0.04724000  0.44038000  0.43036000  1.0
  H  H199  1  0.15472000  0.50790000  0.38511000  1.0
  H  H200  1  0.22456000  0.49355000  0.37443000  1.0
  H  H201  1  0.23722000  0.44923000  0.47168000  1.0
  H  H202  1  0.16716000  0.46268000  0.48103000  1.0
  H  H203  1  0.15081000  0.42405000  0.45444000  1.0
  H  H204  1  0.13829000  0.53745000  0.44287000  1.0
  H  H205  1  0.04377000  0.45715000  0.49944000  1.0
  H  H206  1  0.97625000  0.43439000  0.50936000  1.0
  H  H207  1  0.96294000  0.48668000  0.41231000  1.0
  H  H208  1  0.03105000  0.50680000  0.40363000  1.0
  H  H209  1  0.06152000  0.54178000  0.44173000  1.0
  H  H210  1  0.15200000  0.32196000  0.31032000  1.0
  H  H211  1  0.04458000  0.36239000  0.25392000  1.0
  H  H212  1  0.97529000  0.36987000  0.27276000  1.0
  H  H213  1  0.95733000  0.27042000  0.31599000  1.0
  H  H214  1  0.02707000  0.26422000  0.29823000  1.0
  H  H215  1  0.04699000  0.29129000  0.33489000  1.0
  H  H216  1  0.04840000  0.30488000  0.22759000  1.0
  H  H217  1  0.14878000  0.25045000  0.29252000  1.0
  H  H218  1  0.21481000  0.24228000  0.31258000  1.0
  H  H219  1  0.23541000  0.34145000  0.26155000  1.0
  H  H220  1  0.16856000  0.34829000  0.24367000  1.0
  H  H221  1  0.13224000  0.30782000  0.21288000  1.0
  H  H222  1  0.04473000  0.19743000  0.56947000  1.0
  H  H223  1  0.14443000  0.16873000  0.63743000  1.0
  H  H224  1  0.20968000  0.15422000  0.65893000  1.0
  H  H225  1  0.24281000  0.11037000  0.60152000  1.0
  H  H226  1  0.17671000  0.12449000  0.58177000  1.0
  H  H227  1  0.15685000  0.18188000  0.54795000  1.0
  H  H228  1  0.14345000  0.09116000  0.65726000  1.0
  H  H229  1  0.05668000  0.10447000  0.58760000  1.0
  H  H230  1  0.98959000  0.08032000  0.60460000  1.0
  H  H231  1  0.95578000  0.14121000  0.64454000  1.0
  H  H232  1  0.02379000  0.16334000  0.62835000  1.0
  H  H233  1  0.05871000  0.08836000  0.66222000  1.0
  C  C234  1  0.55079000  0.13103000  0.11983000  1.0
  C  C235  1  0.51120000  0.13889000  0.12506000  1.0
  C  C236  1  0.95161000  0.08664000  0.13564000  1.0
  C  C237  1  0.96168000  0.18662000  0.13426000  1.0
  C  C238  1  0.85548000  0.13143000  0.14922000  1.0
  C  C239  1  0.79518000  0.12558000  0.13069000  1.0
  C  C240  1  0.67360000  0.38917000  0.12089000  1.0
  C  C241  1  0.93688000  0.88811000  0.12076000  1.0
  C  C242  1  0.67057000  0.09831000  0.10378000  1.0
  C  C243  1  0.69972000  0.09353000  0.11724000  1.0
  C  C244  1  0.73238000  0.09743000  0.13006000  1.0
  C  C245  1  0.76084000  0.10787000  0.13454000  1.0
  C  C246  1  0.04989000  0.13047000  0.12090000  1.0
  C  C247  1  0.01024000  0.13831000  0.12597000  1.0
  C  C248  1  0.45271000  0.08703000  0.13503000  1.0
  C  C249  1  0.46251000  0.18702000  0.13362000  1.0
  C  C250  1  0.35649000  0.13160000  0.14893000  1.0
  C  C251  1  0.29593000  0.12576000  0.13068000  1.0
  C  C252  1  0.15611000  0.37216000  0.15204000  1.0
  C  C253  1  0.17294000  0.38958000  0.12066000  1.0
  C  C254  1  0.43789000  0.88752000  0.12098000  1.0
  C  C255  1  0.17040000  0.09837000  0.10481000  1.0
  C  C256  1  0.19979000  0.09376000  0.11798000  1.0
  C  C257  1  0.23276000  0.09773000  0.13046000  1.0
  C  C258  1  0.26143000  0.10815000  0.13471000  1.0
  C  C259  1  0.90702000  0.11249000  0.08590000  1.0
  C  C260  1  0.50373000  0.16292000  0.07157000  1.0
  C  C261  1  0.54318000  0.15495000  0.06537000  1.0
  C  C262  1  0.56588000  0.13776000  0.08998000  1.0
  C  C263  1  0.81710000  0.11875000  0.15537000  1.0
  C  C264  1  0.80924000  0.14737000  0.10093000  1.0
  C  C265  1  0.84789000  0.15898000  0.09575000  1.0
  C  C266  1  0.89666000  0.21185000  0.08665000  1.0
  C  C267  1  0.95628000  0.00016000  0.97454000  1.0
  C  C268  1  0.86088000  0.01126000  0.93186000  1.0
  C  C269  1  0.82176000  0.01647000  0.94162000  1.0
  C  C270  1  0.80966000  0.96090000  0.96562000  1.0
  C  C271  1  0.84903000  0.95666000  0.95593000  1.0
  C  C272  1  0.79681000  0.99086000  0.95946000  1.0
  C  C273  1  0.90878000  0.94788000  0.00301000  1.0
  C  C274  1  0.89630000  0.94999000  0.90468000  1.0
  C  C275  1  0.50301000  0.93660000  0.95283000  1.0
  C  C276  1  0.54023000  0.93136000  0.96455000  1.0
  C  C277  1  0.55259000  0.98694000  0.93642000  1.0
  C  C278  1  0.51495000  0.99116000  0.92569000  1.0
  C  C279  1  0.56353000  0.95707000  0.95777000  1.0
  C  C280  1  0.96455000  0.99907000  0.87654000  1.0
  C  C281  1  0.90475000  0.86989000  0.24008000  1.0
  C  C282  1  0.50049000  0.82279000  0.29577000  1.0
  C  C283  1  0.53713000  0.81384000  0.30831000  1.0
  C  C284  1  0.55530000  0.79008000  0.27528000  1.0
  C  C285  1  0.51818000  0.79919000  0.26361000  1.0
  C  C286  1  0.56313000  0.79560000  0.29931000  1.0
  C  C287  1  0.46037000  0.84343000  0.21173000  1.0
  C  C288  1  0.46814000  0.74761000  0.30983000  1.0
  C  C289  1  0.86713000  0.77979000  0.26478000  1.0
  C  C290  1  0.82960000  0.76554000  0.27402000  1.0
  C  C291  1  0.80899000  0.79905000  0.29695000  1.0
  C  C292  1  0.84702000  0.81246000  0.28756000  1.0
  C  C293  1  0.80149000  0.77425000  0.29160000  1.0
  C  C294  1  0.89655000  0.77145000  0.33588000  1.0
  C  C295  1  0.79026000  0.75315000  0.80188000  1.0
  C  C296  1  0.69447000  0.79845000  0.81491000  1.0
  C  C297  1  0.65613000  0.78567000  0.82135000  1.0
  C  C298  1  0.64821000  0.81325000  0.76687000  1.0
  C  C299  1  0.68680000  0.82505000  0.76142000  1.0
  C  C300  1  0.63419000  0.79190000  0.79684000  1.0
  C  C301  1  0.74581000  0.77843000  0.75205000  1.0
  C  C302  1  0.73561000  0.87826000  0.75170000  1.0
  C  C303  1  0.84222000  0.82816000  0.73828000  1.0
  C  C304  1  0.88161000  0.81972000  0.73257000  1.0
  C  C305  1  0.88860000  0.79674000  0.78706000  1.0
  C  C306  1  0.84905000  0.80497000  0.79183000  1.0
  C  C307  1  0.90396000  0.80280000  0.75745000  1.0
  C  C308  1  0.80045000  0.85366000  0.79949000  1.0
  C  C309  1  0.78798000  0.66538000  0.64090000  1.0
  C  C310  1  0.69277000  0.67432000  0.58767000  1.0
  C  C311  1  0.65626000  0.67774000  0.57547000  1.0
  C  C312  1  0.64529000  0.62223000  0.60695000  1.0
  C  C313  1  0.68215000  0.61983000  0.61834000  1.0
  C  C314  1  0.63422000  0.65104000  0.58370000  1.0
  C  C315  1  0.73952000  0.61253000  0.66883000  1.0
  C  C316  1  0.73300000  0.61456000  0.56974000  1.0
  C  C317  1  0.83626000  0.60335000  0.61095000  1.0
  C  C318  1  0.87554000  0.59918000  0.60075000  1.0
  C  C319  1  0.88671000  0.65457000  0.57990000  1.0
  C  C320  1  0.84716000  0.65776000  0.59019000  1.0
  C  C321  1  0.89992000  0.62531000  0.58392000  1.0
  C  C322  1  0.79838000  0.66461000  0.54298000  1.0
  C  C323  1  0.78841000  0.51272000  0.87777000  1.0
  C  C324  1  0.69939000  0.45434000  0.92572000  1.0
  C  C325  1  0.66243000  0.46156000  0.91348000  1.0
  C  C326  1  0.64359000  0.48888000  0.94314000  1.0
  C  C327  1  0.68104000  0.48159000  0.95440000  1.0
  C  C328  1  0.63584000  0.48066000  0.92088000  1.0
  C  C329  1  0.73775000  0.53742000  0.90831000  1.0
  C  C330  1  0.73197000  0.43866000  0.00348000  1.0
  C  C331  1  0.83157000  0.50315000  0.95124000  1.0
  C  C332  1  0.86910000  0.51750000  0.94176000  1.0
  C  C333  1  0.88751000  0.48698000  0.91524000  1.0
  C  C334  1  0.84955000  0.47359000  0.92478000  1.0
  C  C335  1  0.89630000  0.51008000  0.92268000  1.0
  C  C336  1  0.80298000  0.41653000  0.97564000  1.0
  C  C337  1  0.57701000  0.44590000  0.41726000  1.0
  C  C338  1  0.67400000  0.49489000  0.40440000  1.0
  C  C339  1  0.71329000  0.48644000  0.39846000  1.0
  C  C340  1  0.72000000  0.46166000  0.45309000  1.0
  C  C341  1  0.68059000  0.47009000  0.45806000  1.0
  C  C342  1  0.73545000  0.46863000  0.42324000  1.0
  C  C343  1  0.62110000  0.41929000  0.46722000  1.0
  C  C344  1  0.63270000  0.51875000  0.46649000  1.0
  C  C345  1  0.52550000  0.46445000  0.48017000  1.0
  C  C346  1  0.48727000  0.45172000  0.48569000  1.0
  C  C347  1  0.48026000  0.48122000  0.43118000  1.0
  C  C348  1  0.51878000  0.49285000  0.42660000  1.0
  C  C349  1  0.46589000  0.45896000  0.46064000  1.0
  C  C350  1  0.56818000  0.54503000  0.41828000  1.0
  C  C351  1  0.62344000  0.33299000  0.30668000  1.0
  C  C352  1  0.52602000  0.34227000  0.26713000  1.0
  C  C353  1  0.48701000  0.34684000  0.27768000  1.0
  C  C354  1  0.47634000  0.29109000  0.30187000  1.0
  C  C355  1  0.51556000  0.28750000  0.29135000  1.0
  C  C356  1  0.46282000  0.32085000  0.29592000  1.0
  C  C357  1  0.57683000  0.28027000  0.33666000  1.0
  C  C358  1  0.56135000  0.28140000  0.23913000  1.0
  C  C359  1  0.66882000  0.26948000  0.28497000  1.0
  C  C360  1  0.70597000  0.26451000  0.29673000  1.0
  C  C361  1  0.71813000  0.32008000  0.26811000  1.0
  C  C362  1  0.68050000  0.32405000  0.25736000  1.0
  C  C363  1  0.72904000  0.29036000  0.28984000  1.0
  C  C364  1  0.62863000  0.33099000  0.20950000  1.0
  C  C365  1  0.57349000  0.20263000  0.57359000  1.0
  C  C366  1  0.66638000  0.15707000  0.62868000  1.0
  C  C367  1  0.70318000  0.14891000  0.64103000  1.0
  C  C368  1  0.72201000  0.12432000  0.60880000  1.0
  C  C369  1  0.68477000  0.13275000  0.59723000  1.0
  C  C370  1  0.72962000  0.13062000  0.63239000  1.0
  C  C371  1  0.62688000  0.17607000  0.54532000  1.0
  C  C372  1  0.63544000  0.08078000  0.64354000  1.0
  C  C373  1  0.53408000  0.11257000  0.59969000  1.0
  C  C374  1  0.49636000  0.09862000  0.60939000  1.0
  C  C375  1  0.47712000  0.13286000  0.63170000  1.0
  C  C376  1  0.51532000  0.14595000  0.62187000  1.0
  C  C377  1  0.46881000  0.10791000  0.62683000  1.0
  C  C378  1  0.56485000  0.10469000  0.67002000  1.0
  C  C379  1  0.47678000  0.19391000  0.15662000  1.0
  C  C380  1  0.49035000  0.20362000  0.17239000  1.0
  C  C381  1  0.50710000  0.21715000  0.18888000  1.0
  C  C382  1  0.52138000  0.22949000  0.20213000  1.0
  C  C383  1  0.53767000  0.24495000  0.21701000  1.0
  C  C384  1  0.55013000  0.25977000  0.22849000  1.0
  C  C385  1  0.97854000  0.02275000  0.84554000  1.0
  C  C386  1  0.49177000  0.03887000  0.81913000  1.0
  C  C387  1  0.50809000  0.05607000  0.78765000  1.0
  C  C388  1  0.52216000  0.06976000  0.76081000  1.0
  C  C389  1  0.53849000  0.08477000  0.72919000  1.0
  C  C390  1  0.55154000  0.09578000  0.70216000  1.0
  C  C391  1  0.48075000  0.71521000  0.31975000  1.0
  C  C392  1  0.49365000  0.68848000  0.33137000  1.0
  C  C393  1  0.50996000  0.65748000  0.34686000  1.0
  C  C394  1  0.52409000  0.63130000  0.36080000  1.0
  C  C395  1  0.54058000  0.60066000  0.37817000  1.0
  C  C396  1  0.55394000  0.57484000  0.39466000  1.0
  C  C397  1  0.81136000  0.68828000  0.51179000  1.0
  C  C398  1  0.82416000  0.70481000  0.48508000  1.0
  C  C399  1  0.84026000  0.72207000  0.45360000  1.0
  C  C400  1  0.85418000  0.73584000  0.42675000  1.0
  C  C401  1  0.87034000  0.75096000  0.39513000  1.0
  C  C402  1  0.88327000  0.76214000  0.36808000  1.0
  C  C403  1  0.81274000  0.38336000  0.98783000  1.0
  C  C404  1  0.82448000  0.35633000  0.00016000  1.0
  C  C405  1  0.84012000  0.32514000  0.01587000  1.0
  C  C406  1  0.85390000  0.29884000  0.02978000  1.0
  C  C407  1  0.87006000  0.26805000  0.04698000  1.0
  C  C408  1  0.88307000  0.24205000  0.06327000  1.0
  C  C409  1  0.88482000  0.92820000  0.89426000  1.0
  C  C410  1  0.87255000  0.91329000  0.88278000  1.0
  C  C411  1  0.85673000  0.89768000  0.86783000  1.0
  C  C412  1  0.84292000  0.88518000  0.85452000  1.0
  C  C413  1  0.82679000  0.87136000  0.83802000  1.0
  C  C414  1  0.81384000  0.86127000  0.82232000  1.0
  C  C415  1  0.64325000  0.35502000  0.17879000  1.0
  C  C416  1  0.65685000  0.37169000  0.15228000  1.0
  C  C417  1  0.68800000  0.40311000  0.09413000  1.0
  C  C418  1  0.70469000  0.41846000  0.06256000  1.0
  C  C419  1  0.71808000  0.42973000  0.03556000  1.0
  C  C420  1  0.64823000  0.04842000  0.65357000  1.0
  C  C421  1  0.66123000  0.02173000  0.66514000  1.0
  C  C422  1  0.67767000  0.99078000  0.68051000  1.0
  C  C423  1  0.69189000  0.96464000  0.69435000  1.0
  C  C424  1  0.70842000  0.93402000  0.71162000  1.0
  C  C425  1  0.72171000  0.90818000  0.72807000  1.0
  C  C426  1  0.72010000  0.59172000  0.56116000  1.0
  C  C427  1  0.70706000  0.57650000  0.55030000  1.0
  C  C428  1  0.69062000  0.56093000  0.53558000  1.0
  C  C429  1  0.67638000  0.54862000  0.52228000  1.0
  C  C430  1  0.65978000  0.53518000  0.50564000  1.0
  C  C431  1  0.64645000  0.52557000  0.48970000  1.0
  C  C432  1  0.91536000  0.90297000  0.22452000  1.0
  C  C433  1  0.92083000  0.93108000  0.21146000  1.0
  C  C434  1  0.92533000  0.96432000  0.19589000  1.0
  C  C435  1  0.92881000  0.99264000  0.18253000  1.0
  C  C436  1  0.93348000  0.02587000  0.16664000  1.0
  C  C437  1  0.93944000  0.05392000  0.15276000  1.0
  C  C438  1  0.94463000  0.01793000  0.99107000  1.0
  C  C439  1  0.93865000  0.03279000  0.00518000  1.0
  C  C440  1  0.93377000  0.05008000  0.02199000  1.0
  C  C441  1  0.93002000  0.06475000  0.03636000  1.0
  C  C442  1  0.92506000  0.08187000  0.05333000  1.0
  C  C443  1  0.91895000  0.09612000  0.06804000  1.0
  C  C444  1  0.44897000  0.85870000  0.18027000  1.0
  C  C445  1  0.94184000  0.87241000  0.15298000  1.0
  C  C446  1  0.93301000  0.90159000  0.09328000  1.0
  C  C447  1  0.92784000  0.91752000  0.06109000  1.0
  C  C448  1  0.92144000  0.93129000  0.03409000  1.0
  C  C449  1  0.77761000  0.72057000  0.81917000  1.0
  C  C450  1  0.77112000  0.69263000  0.83335000  1.0
  C  C451  1  0.76578000  0.65950000  0.84969000  1.0
  C  C452  1  0.76168000  0.63126000  0.86349000  1.0
  C  C453  1  0.75637000  0.59811000  0.87959000  1.0
  C  C454  1  0.75000000  0.57013000  0.89296000  1.0
  C  C455  1  0.75663000  0.76222000  0.73386000  1.0
  C  C456  1  0.76182000  0.74798000  0.71909000  1.0
  C  C457  1  0.76574000  0.73072000  0.70222000  1.0
  C  C458  1  0.76866000  0.71586000  0.68803000  1.0
  C  C459  1  0.77256000  0.69827000  0.67149000  1.0
  C  C460  1  0.77764000  0.68319000  0.65755000  1.0
  C  C461  1  0.75129000  0.59684000  0.70020000  1.0
  C  C462  1  0.75723000  0.58351000  0.72731000  1.0
  C  C463  1  0.76204000  0.56794000  0.75958000  1.0
  C  C464  1  0.76573000  0.55476000  0.78709000  1.0
  C  C465  1  0.77061000  0.53942000  0.81934000  1.0
  C  C466  1  0.77661000  0.52681000  0.84643000  1.0
  C  C467  1  0.58433000  0.23566000  0.55773000  1.0
  C  C468  1  0.58994000  0.26376000  0.54440000  1.0
  C  C469  1  0.59458000  0.29700000  0.52853000  1.0
  C  C470  1  0.59816000  0.32530000  0.51494000  1.0
  C  C471  1  0.60294000  0.35853000  0.49879000  1.0
  C  C472  1  0.60896000  0.38656000  0.48468000  1.0
  C  C473  1  0.61213000  0.35092000  0.32303000  1.0
  C  C474  1  0.60644000  0.36598000  0.33692000  1.0
  C  C475  1  0.60197000  0.38344000  0.35350000  1.0
  C  C476  1  0.59861000  0.39819000  0.36775000  1.0
  C  C477  1  0.59415000  0.41531000  0.38467000  1.0
  C  C478  1  0.58845000  0.42954000  0.39938000  1.0
  C  C479  1  0.61565000  0.19132000  0.51380000  1.0
  C  C480  1  0.60980000  0.20441000  0.48668000  1.0
  C  C481  1  0.60487000  0.22015000  0.45444000  1.0
  C  C482  1  0.60101000  0.23365000  0.42695000  1.0
  C  C483  1  0.59586000  0.24963000  0.39475000  1.0
  C  C484  1  0.58948000  0.26346000  0.36775000  1.0
  C  C485  1  0.60381000  0.12505000  0.08574000  1.0
  C  C486  1  0.63526000  0.11149000  0.09050000  1.0
  C  C487  1  0.59477000  0.95403000  0.97597000  1.0
  C  C488  1  0.62146000  0.95752000  0.98808000  1.0
  C  C489  1  0.65403000  0.96786000  0.99580000  1.0
  C  C490  1  0.68541000  0.97910000  0.99464000  1.0
  C  C491  1  0.72445000  0.99042000  0.98454000  1.0
  C  C492  1  0.75782000  0.99458000  0.97184000  1.0
  C  C493  1  0.59511000  0.77927000  0.31690000  1.0
  C  C494  1  0.62314000  0.76372000  0.32879000  1.0
  C  C495  1  0.65967000  0.74808000  0.33528000  1.0
  C  C496  1  0.69439000  0.74182000  0.33221000  1.0
  C  C497  1  0.73434000  0.74559000  0.31980000  1.0
  C  C498  1  0.76583000  0.75678000  0.30591000  1.0
  C  C499  1  0.59983000  0.77404000  0.80117000  1.0
  C  C500  1  0.57125000  0.76318000  0.79732000  1.0
  C  C501  1  0.53829000  0.75864000  0.78522000  1.0
  C  C502  1  0.50887000  0.76297000  0.77214000  1.0
  C  C503  1  0.47348000  0.77593000  0.75890000  1.0
  C  C504  1  0.44216000  0.78963000  0.75381000  1.0
  C  C505  1  0.60391000  0.65205000  0.56561000  1.0
  C  C506  1  0.57792000  0.64884000  0.55279000  1.0
  C  C507  1  0.54413000  0.64078000  0.54430000  1.0
  C  C508  1  0.51083000  0.63242000  0.54541000  1.0
  C  C509  1  0.47077000  0.62450000  0.55613000  1.0
  C  C510  1  0.43808000  0.62184000  0.56960000  1.0
  C  C511  1  0.60358000  0.49562000  0.90297000  1.0
  C  C512  1  0.57528000  0.51089000  0.89125000  1.0
  C  C513  1  0.53965000  0.52784000  0.88456000  1.0
  C  C514  1  0.50588000  0.53654000  0.88680000  1.0
  C  C515  1  0.46569000  0.53619000  0.89786000  1.0
  C  C516  1  0.93333000  0.52607000  0.91011000  1.0
  C  C517  1  0.77336000  0.45585000  0.41906000  1.0
  C  C518  1  0.80487000  0.44234000  0.42334000  1.0
  C  C519  1  0.84086000  0.42951000  0.43563000  1.0
  C  C520  1  0.87071000  0.42520000  0.44824000  1.0
  C  C521  1  0.90370000  0.42967000  0.46039000  1.0
  C  C522  1  0.43181000  0.44132000  0.46381000  1.0
  C  C523  1  0.92312000  0.32359000  0.30898000  1.0
  C  C524  1  0.88972000  0.31949000  0.32166000  1.0
  C  C525  1  0.85012000  0.30921000  0.33080000  1.0
  C  C526  1  0.81831000  0.29932000  0.33064000  1.0
  C  C527  1  0.78582000  0.29048000  0.32140000  1.0
  C  C528  1  0.75963000  0.28764000  0.30847000  1.0
  C  C529  1  0.76173000  0.11488000  0.65009000  1.0
  C  C530  1  0.78988000  0.09976000  0.66222000  1.0
  C  C531  1  0.82639000  0.08423000  0.66930000  1.0
  C  C532  1  0.86111000  0.07772000  0.66680000  1.0
  C  C533  1  0.90122000  0.08096000  0.65484000  1.0
  C  C534  1  0.93289000  0.09168000  0.64098000  1.0
  C  C535  1  0.40772000  0.11269000  0.08551000  1.0
  C  C536  1  0.00320000  0.16242000  0.07240000  1.0
  C  C537  1  0.04273000  0.15446000  0.06637000  1.0
  C  C538  1  0.06525000  0.13728000  0.09108000  1.0
  C  C539  1  0.31807000  0.11894000  0.15525000  1.0
  C  C540  1  0.30987000  0.14750000  0.10085000  1.0
  C  C541  1  0.34854000  0.15910000  0.09551000  1.0
  C  C542  1  0.39719000  0.21212000  0.08621000  1.0
  C  C543  1  0.45666000  0.99978000  0.97472000  1.0
  C  C544  1  0.36100000  0.01037000  0.93239000  1.0
  C  C545  1  0.32182000  0.01536000  0.94220000  1.0
  C  C546  1  0.31021000  0.95973000  0.96625000  1.0
  C  C547  1  0.34964000  0.95571000  0.95648000  1.0
  C  C548  1  0.29708000  0.98965000  0.96006000  1.0
  C  C549  1  0.40956000  0.94727000  0.00330000  1.0
  C  C550  1  0.39689000  0.94939000  0.90501000  1.0
  C  C551  1  0.00222000  0.93671000  0.95277000  1.0
  C  C552  1  0.03946000  0.93126000  0.96448000  1.0
  C  C553  1  0.05227000  0.98679000  0.93648000  1.0
  C  C554  1  0.01463000  0.99122000  0.92570000  1.0
  C  C555  1  0.06299000  0.95682000  0.95779000  1.0
  C  C556  1  0.46474000  0.99867000  0.87676000  1.0
  C  C557  1  0.40746000  0.87009000  0.24018000  1.0
  C  C558  1  0.99744000  0.82466000  0.29550000  1.0
  C  C559  1  0.03413000  0.81672000  0.30804000  1.0
  C  C560  1  0.05421000  0.79273000  0.27544000  1.0
  C  C561  1  0.01702000  0.80085000  0.26374000  1.0
  C  C562  1  0.06119000  0.79889000  0.29924000  1.0
  C  C563  1  0.95899000  0.84410000  0.21159000  1.0
  C  C564  1  0.96765000  0.74817000  0.30971000  1.0
  C  C565  1  0.36700000  0.78106000  0.26519000  1.0
  C  C566  1  0.32887000  0.76776000  0.27442000  1.0
  C  C567  1  0.31053000  0.80174000  0.29717000  1.0
  C  C568  1  0.34909000  0.81415000  0.28783000  1.0
  C  C569  1  0.30156000  0.77720000  0.29186000  1.0
  C  C570  1  0.39804000  0.77198000  0.33609000  1.0
  C  C571  1  0.29045000  0.75343000  0.80155000  1.0
  C  C572  1  0.19471000  0.79885000  0.81436000  1.0
  C  C573  1  0.15634000  0.78614000  0.82069000  1.0
  C  C574  1  0.14865000  0.81380000  0.76618000  1.0
  C  C575  1  0.18726000  0.82554000  0.76084000  1.0
  C  C576  1  0.13452000  0.79245000  0.79610000  1.0
  C  C577  1  0.24621000  0.77882000  0.75161000  1.0
  C  C578  1  0.23611000  0.87864000  0.75128000  1.0
  C  C579  1  0.34273000  0.82835000  0.73808000  1.0
  C  C580  1  0.38209000  0.81977000  0.73247000  1.0
  C  C581  1  0.38886000  0.79680000  0.78699000  1.0
  C  C582  1  0.34933000  0.80515000  0.79165000  1.0
  C  C583  1  0.40432000  0.80280000  0.75741000  1.0
  C  C584  1  0.30080000  0.85388000  0.79924000  1.0
  C  C585  1  0.28872000  0.66557000  0.64069000  1.0
  C  C586  1  0.19345000  0.67499000  0.58757000  1.0
  C  C587  1  0.15685000  0.67865000  0.57542000  1.0
  C  C588  1  0.14536000  0.62321000  0.60685000  1.0
  C  C589  1  0.18230000  0.62056000  0.61820000  1.0
  C  C590  1  0.13449000  0.65211000  0.58364000  1.0
  C  C591  1  0.23987000  0.61294000  0.66871000  1.0
  C  C592  1  0.23289000  0.61490000  0.56967000  1.0
  C  C593  1  0.33621000  0.60315000  0.61084000  1.0
  C  C594  1  0.37537000  0.59875000  0.60062000  1.0
  C  C595  1  0.38719000  0.65405000  0.57975000  1.0
  C  C596  1  0.34773000  0.65749000  0.59006000  1.0
  C  C597  1  0.40001000  0.62470000  0.58378000  1.0
  C  C598  1  0.29878000  0.66466000  0.54286000  1.0
  C  C599  1  0.28876000  0.51311000  0.87769000  1.0
  C  C600  1  0.20000000  0.45436000  0.92541000  1.0
  C  C601  1  0.16314000  0.46139000  0.91304000  1.0
  C  C602  1  0.14365000  0.48881000  0.94252000  1.0
  C  C603  1  0.18101000  0.48168000  0.95394000  1.0
  C  C604  1  0.13626000  0.48044000  0.92029000  1.0
  C  C605  1  0.23771000  0.53771000  0.90810000  1.0
  C  C606  1  0.23175000  0.43893000  0.00331000  1.0
  C  C607  1  0.33116000  0.50367000  0.95147000  1.0
  C  C608  1  0.36860000  0.51814000  0.94219000  1.0
  C  C609  1  0.38768000  0.48776000  0.91560000  1.0
  C  C610  1  0.34980000  0.47424000  0.92496000  1.0
  C  C611  1  0.39611000  0.51085000  0.92317000  1.0
  C  C612  1  0.30324000  0.41692000  0.97568000  1.0
  C  C613  1  0.07663000  0.44616000  0.41730000  1.0
  C  C614  1  0.17322000  0.49570000  0.40397000  1.0
  C  C615  1  0.21254000  0.48751000  0.39778000  1.0
  C  C616  1  0.21979000  0.46272000  0.45234000  1.0
  C  C617  1  0.18034000  0.47091000  0.45754000  1.0
  C  C618  1  0.23500000  0.46981000  0.42241000  1.0
  C  C619  1  0.12109000  0.41975000  0.46705000  1.0
  C  C620  1  0.13220000  0.51932000  0.46628000  1.0
  C  C621  1  0.02539000  0.46446000  0.48053000  1.0
  C  C622  1  0.98730000  0.45143000  0.48629000  1.0
  C  C623  1  0.97969000  0.48083000  0.43186000  1.0
  C  C624  1  0.01808000  0.49275000  0.42705000  1.0
  C  C625  1  0.96570000  0.45848000  0.46139000  1.0
  C  C626  1  0.06719000  0.54526000  0.41844000  1.0
  C  C627  1  0.12286000  0.33348000  0.30644000  1.0
  C  C628  1  0.02522000  0.34231000  0.26721000  1.0
  C  C629  1  0.98625000  0.34667000  0.27799000  1.0
  C  C630  1  0.97601000  0.29088000  0.30215000  1.0
  C  C631  1  0.01520000  0.28750000  0.29142000  1.0
  C  C632  1  0.96230000  0.32056000  0.29633000  1.0
  C  C633  1  0.07660000  0.28055000  0.33651000  1.0
  C  C634  1  0.06074000  0.28156000  0.23916000  1.0
  C  C635  1  0.16862000  0.27023000  0.28454000  1.0
  C  C636  1  0.20589000  0.26545000  0.29610000  1.0
  C  C637  1  0.21754000  0.32108000  0.26743000  1.0
  C  C638  1  0.17981000  0.32486000  0.25688000  1.0
  C  C639  1  0.22878000  0.29143000  0.28908000  1.0
  C  C640  1  0.12780000  0.33144000  0.20924000  1.0
  C  C641  1  0.07386000  0.20302000  0.57335000  1.0
  C  C642  1  0.16672000  0.15716000  0.62856000  1.0
  C  C643  1  0.20348000  0.14884000  0.64097000  1.0
  C  C644  1  0.22219000  0.12435000  0.60864000  1.0
  C  C645  1  0.18498000  0.13293000  0.59702000  1.0
  C  C646  1  0.22982000  0.13052000  0.63230000  1.0
  C  C647  1  0.12709000  0.17637000  0.54508000  1.0
  C  C648  1  0.13557000  0.08103000  0.64332000  1.0
  C  C649  1  0.03419000  0.11307000  0.59939000  1.0
  C  C650  1  0.99643000  0.09919000  0.60909000  1.0
  C  C651  1  0.97736000  0.13345000  0.63140000  1.0
  C  C652  1  0.01560000  0.14645000  0.62159000  1.0
  C  C653  1  0.96896000  0.10850000  0.62654000  1.0
  C  C654  1  0.06501000  0.10505000  0.66977000  1.0
  C  C655  1  0.97585000  0.19358000  0.15725000  1.0
  C  C656  1  0.98940000  0.20334000  0.17299000  1.0
  C  C657  1  0.00617000  0.21694000  0.18941000  1.0
  C  C658  1  0.02048000  0.22933000  0.20260000  1.0
  C  C659  1  0.03684000  0.24488000  0.21737000  1.0
  C  C660  1  0.04939000  0.25979000  0.22873000  1.0
  C  C661  1  0.47863000  0.02239000  0.84577000  1.0
  C  C662  1  0.99174000  0.03922000  0.81890000  1.0
  C  C663  1  0.00812000  0.05641000  0.78742000  1.0
  C  C664  1  0.02222000  0.07007000  0.76059000  1.0
  C  C665  1  0.03857000  0.08508000  0.72896000  1.0
  C  C666  1  0.05166000  0.09611000  0.70192000  1.0
  C  C667  1  0.98008000  0.71566000  0.32009000  1.0
  C  C668  1  0.99288000  0.68890000  0.33184000  1.0
  C  C669  1  0.00912000  0.65788000  0.34736000  1.0
  C  C670  1  0.02321000  0.63170000  0.36127000  1.0
  C  C671  1  0.03967000  0.60103000  0.37857000  1.0
  C  C672  1  0.05301000  0.57517000  0.39496000  1.0
  C  C673  1  0.31231000  0.68843000  0.51182000  1.0
  C  C674  1  0.32542000  0.70502000  0.48521000  1.0
  C  C675  1  0.34178000  0.72236000  0.45379000  1.0
  C  C676  1  0.35588000  0.73620000  0.42699000  1.0
  C  C677  1  0.37217000  0.75140000  0.39540000  1.0
  C  C678  1  0.38511000  0.76265000  0.36834000  1.0
  C  C679  1  0.31316000  0.38376000  0.98784000  1.0
  C  C680  1  0.32498000  0.35674000  0.00011000  1.0
  C  C681  1  0.34067000  0.32556000  0.01574000  1.0
  C  C682  1  0.35447000  0.29926000  0.02958000  1.0
  C  C683  1  0.37063000  0.26844000  0.04671000  1.0
  C  C684  1  0.38364000  0.24240000  0.06293000  1.0
  C  C685  1  0.38552000  0.92766000  0.89451000  1.0
  C  C686  1  0.37325000  0.91282000  0.88296000  1.0
  C  C687  1  0.35736000  0.89735000  0.86790000  1.0
  C  C688  1  0.34351000  0.88496000  0.85451000  1.0
  C  C689  1  0.32732000  0.87126000  0.83793000  1.0
  C  C690  1  0.31430000  0.86129000  0.82216000  1.0
  C  C691  1  0.14246000  0.35551000  0.17855000  1.0
  C  C692  1  0.18740000  0.40348000  0.09390000  1.0
  C  C693  1  0.20417000  0.41877000  0.06235000  1.0
  C  C694  1  0.21766000  0.43000000  0.03537000  1.0
  C  C695  1  0.14845000  0.04871000  0.65324000  1.0
  C  C696  1  0.16153000  0.02204000  0.66477000  1.0
  C  C697  1  0.17805000  0.99111000  0.68012000  1.0
  C  C698  1  0.19232000  0.96498000  0.69394000  1.0
  C  C699  1  0.20890000  0.93437000  0.71118000  1.0
  C  C700  1  0.22220000  0.90853000  0.72762000  1.0
  C  C701  1  0.22003000  0.59218000  0.56092000  1.0
  C  C702  1  0.20701000  0.57700000  0.55001000  1.0
  C  C703  1  0.19055000  0.56145000  0.53527000  1.0
  C  C704  1  0.17626000  0.54916000  0.52197000  1.0
  C  C705  1  0.15958000  0.53572000  0.50536000  1.0
  C  C706  1  0.14616000  0.52611000  0.48945000  1.0
  C  C707  1  0.41790000  0.90320000  0.22450000  1.0
  C  C708  1  0.42317000  0.93133000  0.21134000  1.0
  C  C709  1  0.42741000  0.96459000  0.19567000  1.0
  C  C710  1  0.43066000  0.99293000  0.18223000  1.0
  C  C711  1  0.43506000  0.02618000  0.16625000  1.0
  C  C712  1  0.44080000  0.05425000  0.15228000  1.0
  C  C713  1  0.44513000  0.01764000  0.99117000  1.0
  C  C714  1  0.43921000  0.03258000  0.00520000  1.0
  C  C715  1  0.43435000  0.04996000  0.02192000  1.0
  C  C716  1  0.43062000  0.06469000  0.03622000  1.0
  C  C717  1  0.42573000  0.08191000  0.05310000  1.0
  C  C718  1  0.41965000  0.09623000  0.06774000  1.0
  C  C719  1  0.94774000  0.85934000  0.18008000  1.0
  C  C720  1  0.44295000  0.87180000  0.15318000  1.0
  C  C721  1  0.43394000  0.90100000  0.09352000  1.0
  C  C722  1  0.42871000  0.91691000  0.06135000  1.0
  C  C723  1  0.42227000  0.93067000  0.03436000  1.0
  C  C724  1  0.27778000  0.72086000  0.81886000  1.0
  C  C725  1  0.27128000  0.69291000  0.83306000  1.0
  C  C726  1  0.26591000  0.65978000  0.84943000  1.0
  C  C727  1  0.26178000  0.63154000  0.86327000  1.0
  C  C728  1  0.25641000  0.59840000  0.87940000  1.0
  C  C729  1  0.25000000  0.57042000  0.89278000  1.0
  C  C730  1  0.25710000  0.76259000  0.73346000  1.0
  C  C731  1  0.26233000  0.74830000  0.71873000  1.0
  C  C732  1  0.26629000  0.73102000  0.70189000  1.0
  C  C733  1  0.26924000  0.71612000  0.68774000  1.0
  C  C734  1  0.27321000  0.69850000  0.67123000  1.0
  C  C735  1  0.27835000  0.68338000  0.65733000  1.0
  C  C736  1  0.25164000  0.59722000  0.70009000  1.0
  C  C737  1  0.25758000  0.58390000  0.72720000  1.0
  C  C738  1  0.26241000  0.56833000  0.75947000  1.0
  C  C739  1  0.26611000  0.55516000  0.78698000  1.0
  C  C740  1  0.27098000  0.53980000  0.81925000  1.0
  C  C741  1  0.27697000  0.52720000  0.84634000  1.0
  C  C742  1  0.08468000  0.23605000  0.55750000  1.0
  C  C743  1  0.09027000  0.26415000  0.54418000  1.0
  C  C744  1  0.09487000  0.29740000  0.52832000  1.0
  C  C745  1  0.09841000  0.32572000  0.51473000  1.0
  C  C746  1  0.10311000  0.35895000  0.49860000  1.0
  C  C747  1  0.10905000  0.38700000  0.48449000  1.0
  C  C748  1  0.11163000  0.35141000  0.32280000  1.0
  C  C749  1  0.10598000  0.36648000  0.33669000  1.0
  C  C750  1  0.10153000  0.38394000  0.35328000  1.0
  C  C751  1  0.09819000  0.39867000  0.36756000  1.0
  C  C752  1  0.09375000  0.41575000  0.38452000  1.0
  C  C753  1  0.08806000  0.42992000  0.39930000  1.0
  C  C754  1  0.11580000  0.19161000  0.51357000  1.0
  C  C755  1  0.10991000  0.20470000  0.48645000  1.0
  C  C756  1  0.10494000  0.22043000  0.45422000  1.0
  C  C757  1  0.10102000  0.23393000  0.42674000  1.0
  C  C758  1  0.09579000  0.24990000  0.39456000  1.0
  C  C759  1  0.08933000  0.26375000  0.36756000  1.0
  C  C760  1  0.10335000  0.12472000  0.08697000  1.0
  C  C761  1  0.13491000  0.11132000  0.09173000  1.0
  C  C762  1  0.09433000  0.95356000  0.97600000  1.0
  C  C763  1  0.12115000  0.95678000  0.98817000  1.0
  C  C764  1  0.15393000  0.96679000  0.99600000  1.0
  C  C765  1  0.18544000  0.97779000  0.99497000  1.0
  C  C766  1  0.22455000  0.98899000  0.98502000  1.0
  C  C767  1  0.25796000  0.99319000  0.97240000  1.0
  C  C768  1  0.09349000  0.78352000  0.31688000  1.0
  C  C769  1  0.12195000  0.76867000  0.32876000  1.0
  C  C770  1  0.15876000  0.75350000  0.33524000  1.0
  C  C771  1  0.19346000  0.74718000  0.33223000  1.0
  C  C772  1  0.23341000  0.75032000  0.31994000  1.0
  C  C773  1  0.26522000  0.76071000  0.30613000  1.0
  C  C774  1  0.10013000  0.77465000  0.80034000  1.0
  C  C775  1  0.07153000  0.76383000  0.79648000  1.0
  C  C776  1  0.03846000  0.75927000  0.78451000  1.0
  C  C777  1  0.00889000  0.76348000  0.77163000  1.0
  C  C778  1  0.97330000  0.77625000  0.75863000  1.0
  C  C779  1  0.94187000  0.78980000  0.75372000  1.0
  C  C780  1  0.10405000  0.65335000  0.56554000  1.0
  C  C781  1  0.07792000  0.65025000  0.55277000  1.0
  C  C782  1  0.04406000  0.64220000  0.54434000  1.0
  C  C783  1  0.01081000  0.63374000  0.54550000  1.0
  C  C784  1  0.97082000  0.62558000  0.55625000  1.0
  C  C785  1  0.93810000  0.62270000  0.56973000  1.0
  C  C786  1  0.10402000  0.49517000  0.90228000  1.0
  C  C787  1  0.07565000  0.51026000  0.89046000  1.0
  C  C788  1  0.03990000  0.52702000  0.88370000  1.0
  C  C789  1  0.00607000  0.53562000  0.88593000  1.0
  C  C790  1  0.96590000  0.53525000  0.89705000  1.0
  C  C791  1  0.43307000  0.52696000  0.91079000  1.0
  C  C792  1  0.27297000  0.45724000  0.41800000  1.0
  C  C793  1  0.30457000  0.44388000  0.42211000  1.0
  C  C794  1  0.34062000  0.43106000  0.43431000  1.0
  C  C795  1  0.37048000  0.42661000  0.44694000  1.0
  C  C796  1  0.40351000  0.43079000  0.45922000  1.0
  C  C797  1  0.93187000  0.44051000  0.46477000  1.0
  C  C798  1  0.42358000  0.32409000  0.30833000  1.0
  C  C799  1  0.39007000  0.32024000  0.32080000  1.0
  C  C800  1  0.35034000  0.31025000  0.32975000  1.0
  C  C801  1  0.31843000  0.30055000  0.32951000  1.0
  C  C802  1  0.28584000  0.29179000  0.32031000  1.0
  C  C803  1  0.25955000  0.28889000  0.30750000  1.0
  C  C804  1  0.26180000  0.11458000  0.65007000  1.0
  C  C805  1  0.28983000  0.09931000  0.66226000  1.0
  C  C806  1  0.32624000  0.08365000  0.66943000  1.0
  C  C807  1  0.36096000  0.07707000  0.66701000  1.0
  C  C808  1  0.40109000  0.08030000  0.65510000  1.0
  C  C809  1  0.43276000  0.09103000  0.64126000  1.0
  N  N810  1  0.87136000  0.14903000  0.11951000  1.0
  N  N811  1  0.98694000  0.15253000  0.10205000  1.0
  N  N812  1  0.37218000  0.14920000  0.11917000  1.0
  N  N813  1  0.48769000  0.15303000  0.10127000  1.0
  N  N814  1  0.87450000  0.98155000  0.94062000  1.0
  N  N815  1  0.48951000  0.96639000  0.93632000  1.0
  N  N816  1  0.49015000  0.81252000  0.27623000  1.0
  N  N817  1  0.87624000  0.80091000  0.27393000  1.0
  N  N818  1  0.71029000  0.81560000  0.78511000  1.0
  N  N819  1  0.82587000  0.81890000  0.76781000  1.0
  N  N820  1  0.70689000  0.64520000  0.60603000  1.0
  N  N821  1  0.82193000  0.63264000  0.60353000  1.0
  N  N822  1  0.70939000  0.46699000  0.94341000  1.0
  N  N823  1  0.82155000  0.48318000  0.94095000  1.0
  N  N824  1  0.65756000  0.48490000  0.43403000  1.0
  N  N825  1  0.54182000  0.48245000  0.45067000  1.0
  N  N826  1  0.54031000  0.31278000  0.27547000  1.0
  N  N827  1  0.65510000  0.29919000  0.26837000  1.0
  N  N828  1  0.65639000  0.14612000  0.60958000  1.0
  N  N829  1  0.54394000  0.13392000  0.60831000  1.0
  N  N830  1  0.37489000  0.98071000  0.94111000  1.0
  N  N831  1  0.98899000  0.96660000  0.93625000  1.0
  N  N832  1  0.98813000  0.81385000  0.27612000  1.0
  N  N833  1  0.37740000  0.80198000  0.27420000  1.0
  N  N834  1  0.21064000  0.81602000  0.78460000  1.0
  N  N835  1  0.32626000  0.81914000  0.76757000  1.0
  N  N836  1  0.20731000  0.64577000  0.60590000  1.0
  N  N837  1  0.32222000  0.63253000  0.60340000  1.0
  N  N838  1  0.20964000  0.46712000  0.94311000  1.0
  N  N839  1  0.32151000  0.48369000  0.94108000  1.0
  N  N840  1  0.15704000  0.48559000  0.43367000  1.0
  N  N841  1  0.04138000  0.48254000  0.45095000  1.0
  N  N842  1  0.03973000  0.31289000  0.27545000  1.0
  N  N843  1  0.15462000  0.29985000  0.26801000  1.0
  N  N844  1  0.15667000  0.14631000  0.60940000  1.0
  N  N845  1  0.04416000  0.13439000  0.60802000  1.0
  O  O846  1  0.93235000  0.10891000  0.14266000  1.0
  O  O847  1  0.93256000  0.16391000  0.14170000  1.0
  O  O848  1  0.43341000  0.10926000  0.14209000  1.0
  O  O849  1  0.43346000  0.16425000  0.14112000  1.0
  O  O850  1  0.92565000  0.14020000  0.07877000  1.0
  O  O851  1  0.92620000  0.19397000  0.07970000  1.0
  O  O852  1  0.93910000  0.00688000  0.94793000  1.0
  O  O853  1  0.92689000  0.94160000  0.97982000  1.0
  O  O854  1  0.92423000  0.94246000  0.92618000  1.0
  O  O855  1  0.93616000  0.00561000  0.89571000  1.0
  O  O856  1  0.92198000  0.84955000  0.26659000  1.0
  O  O857  1  0.94120000  0.81614000  0.23309000  1.0
  O  O858  1  0.44323000  0.76383000  0.28619000  1.0
  O  O859  1  0.42411000  0.79697000  0.31804000  1.0
  O  O860  1  0.77120000  0.77563000  0.80863000  1.0
  O  O861  1  0.76463000  0.80615000  0.74472000  1.0
  O  O862  1  0.76521000  0.86027000  0.74499000  1.0
  O  O863  1  0.77139000  0.83089000  0.80702000  1.0
  O  O864  1  0.76837000  0.67153000  0.61545000  1.0
  O  O865  1  0.75988000  0.60629000  0.64629000  1.0
  O  O866  1  0.75937000  0.60737000  0.59226000  1.0
  O  O867  1  0.77008000  0.67082000  0.56249000  1.0
  O  O868  1  0.77225000  0.48435000  0.90016000  1.0
  O  O869  1  0.75301000  0.51628000  0.93547000  1.0
  O  O870  1  0.75919000  0.46294000  0.98582000  1.0
  O  O871  1  0.77840000  0.43224000  0.95177000  1.0
  O  O872  1  0.59625000  0.47332000  0.41026000  1.0
  O  O873  1  0.60223000  0.44169000  0.47422000  1.0
  O  O874  1  0.60306000  0.49651000  0.47353000  1.0
  O  O875  1  0.59749000  0.52695000  0.41143000  1.0
  O  O876  1  0.60554000  0.33934000  0.28048000  1.0
  O  O877  1  0.59462000  0.27395000  0.31340000  1.0
  O  O878  1  0.58963000  0.27402000  0.26035000  1.0
  O  O879  1  0.60040000  0.33727000  0.22896000  1.0
  O  O880  1  0.59076000  0.18239000  0.60012000  1.0
  O  O881  1  0.60845000  0.14845000  0.56704000  1.0
  O  O882  1  0.61065000  0.09678000  0.61981000  1.0
  O  O883  1  0.59085000  0.12971000  0.65181000  1.0
  O  O884  1  0.42626000  0.14047000  0.07827000  1.0
  O  O885  1  0.42671000  0.19429000  0.07916000  1.0
  O  O886  1  0.43933000  0.00641000  0.94819000  1.0
  O  O887  1  0.42769000  0.94105000  0.98008000  1.0
  O  O888  1  0.42490000  0.94191000  0.92646000  1.0
  O  O889  1  0.43633000  0.00511000  0.89599000  1.0
  O  O890  1  0.42546000  0.84974000  0.26633000  1.0
  O  O891  1  0.44234000  0.81563000  0.23337000  1.0
  O  O892  1  0.94346000  0.76427000  0.28559000  1.0
  O  O893  1  0.92224000  0.79671000  0.31794000  1.0
  O  O894  1  0.27140000  0.77595000  0.80826000  1.0
  O  O895  1  0.26509000  0.80651000  0.74432000  1.0
  O  O896  1  0.26572000  0.86063000  0.74462000  1.0
  O  O897  1  0.27165000  0.83119000  0.80668000  1.0
  O  O898  1  0.26922000  0.67181000  0.61517000  1.0
  O  O899  1  0.26010000  0.60660000  0.64619000  1.0
  O  O900  1  0.25923000  0.60758000  0.59223000  1.0
  O  O901  1  0.27053000  0.67097000  0.56232000  1.0
  O  O902  1  0.27272000  0.48468000  0.90006000  1.0
  O  O903  1  0.25275000  0.51657000  0.93536000  1.0
  O  O904  1  0.25895000  0.46325000  0.98573000  1.0
  O  O905  1  0.27886000  0.43261000  0.95168000  1.0
  O  O906  1  0.09561000  0.47371000  0.41023000  1.0
  O  O907  1  0.10221000  0.44210000  0.47413000  1.0
  O  O908  1  0.10274000  0.49692000  0.47346000  1.0
  O  O909  1  0.09657000  0.52732000  0.41144000  1.0
  O  O910  1  0.10479000  0.33974000  0.28033000  1.0
  O  O911  1  0.09437000  0.27431000  0.31319000  1.0
  O  O912  1  0.08934000  0.27439000  0.26012000  1.0
  O  O913  1  0.09963000  0.33768000  0.22878000  1.0
  O  O914  1  0.09120000  0.18275000  0.59984000  1.0
  O  O915  1  0.10873000  0.14873000  0.56682000  1.0
  O  O916  1  0.11071000  0.09706000  0.61963000  1.0
  O  O917  1  0.09103000  0.13005000  0.65158000  1.0
