# generated using pymatgen
data_CdH6C11N10
_symmetry_space_group_name_H-M   'P 1'
_cell_length_a   12.69275000
_cell_length_b   44.16530000
_cell_length_c   44.88740968
_cell_angle_alpha   61.57929000
_cell_angle_beta   84.67045471
_cell_angle_gamma   87.33700000
_symmetry_Int_Tables_number   1
_chemical_formula_structural   CdH6C11N10
_chemical_formula_sum   'Cd27 H162 C297 N270'
_cell_volume   22034.47717564
_cell_formula_units_Z   27
loop_
 _symmetry_equiv_pos_site_id
 _symmetry_equiv_pos_as_xyz
  1  'x, y, z'
loop_
 _atom_site_type_symbol
 _atom_site_label
 _atom_site_symmetry_multiplicity
 _atom_site_fract_x
 _atom_site_fract_y
 _atom_site_fract_z
 _atom_site_occupancy
  C  C0  1  0.62152000  0.15584500  0.04310500  1.0
  C  C1  1  0.21620000  0.26927000  0.04617000  1.0
  C  C2  1  0.28784000  0.29227000  0.04688000  1.0
  C  C3  1  0.44884000  0.32895000  0.01773000  1.0
  C  C4  1  0.82586000  0.38285000  0.03228000  1.0
  C  C5  1  0.35620000  0.40399000  0.04087000  1.0
  C  C6  1  0.28214000  0.38641000  0.03359000  1.0
  C  C7  1  0.03043000  0.93044000  0.04784000  1.0
  C  C8  1  0.04400000  0.96143000  0.04846000  1.0
  C  C9  1  0.03190000  0.99326000  0.01936000  1.0
  C  C10  1  0.00292000  0.93138000  0.01778000  1.0
  C  C11  1  0.11002000  0.02948000  0.04074000  1.0
  C  C12  1  0.10536000  0.06363000  0.03270000  1.0
  C  C13  1  0.35874000  0.13660000  0.02511000  1.0
  C  C14  1  0.37988000  0.10570500  0.02396500  1.0
  C  C15  1  0.48092000  0.09048000  0.03001000  1.0
  C  C16  1  0.55966000  0.10733000  0.03663000  1.0
  C  C17  1  0.53688000  0.13777500  0.03850500  1.0
  C  C18  1  0.43656000  0.15229000  0.03293000  1.0
  C  C19  1  0.43446000  0.03579000  0.03016500  1.0
  C  C20  1  0.60032000  0.04591000  0.02512000  1.0
  C  C21  1  0.58618000  0.01545500  0.02471000  1.0
  C  C22  1  0.51765000  0.93275000  0.03084000  1.0
  C  C23  1  0.90602000  0.06892000  0.09861000  1.0
  C  C24  1  0.06704000  0.22734000  0.07184000  1.0
  C  C25  1  0.03948000  0.89714000  0.07897000  1.0
  C  C26  1  0.34842000  0.40081000  0.07525000  1.0
  C  C27  1  0.14002000  0.25177000  0.07333000  1.0
  C  C28  1  0.28064000  0.29782000  0.07541000  1.0
  C  C29  1  0.20540000  0.28054000  0.10281000  1.0
  C  C30  1  0.13589000  0.25723000  0.10188000  1.0
  C  C31  1  0.79118000  0.32922000  0.06367000  1.0
  C  C32  1  0.80326000  0.34409500  0.08398500  1.0
  C  C33  1  0.70136000  0.00316000  0.11324000  1.0
  C  C34  1  0.75412000  0.03448000  0.10171000  1.0
  C  C35  1  0.86086000  0.03527000  0.10705000  1.0
  C  C36  1  0.53180000  0.97742000  0.11139500  1.0
  C  C37  1  0.51674000  0.02559500  0.11213000  1.0
  C  C38  1  0.41784000  0.01398000  0.11235500  1.0
  C  C39  1  0.91542000  0.00404000  0.12487000  1.0
  C  C40  1  0.91638000  0.93883000  0.15570000  1.0
  C  C41  1  0.20998000  0.28383000  0.13388000  1.0
  C  C42  1  0.86418000  0.97235500  0.13571000  1.0
  C  C43  1  0.75826000  0.97232000  0.12916000  1.0
  C  C44  1  0.68512000  0.79860000  0.17763000  1.0
  C  C45  1  0.55884000  0.75148000  0.19506000  1.0
  C  C46  1  0.57868000  0.78444000  0.19063000  1.0
  C  C47  1  0.49500000  0.80458000  0.19419000  1.0
  C  C48  1  0.35146000  0.69698000  0.19354000  1.0
  C  C49  1  0.30036000  0.81491000  0.19774000  1.0
  C  C50  1  0.86820000  0.28148000  0.97429000  1.0
  C  C51  1  0.88520000  0.14412000  0.95163000  1.0
  C  C52  1  0.26016000  0.15496000  0.01418000  1.0
  C  C53  1  0.12094000  0.05950000  0.74914000  1.0
  C  C54  1  0.91134000  0.09112500  0.87429500  1.0
  C  C55  1  0.27560000  0.97626000  0.87955000  1.0
  C  C56  1  0.96336000  0.96346000  0.95664000  1.0
  C  C57  1  0.88918000  0.95412000  0.80186000  1.0
  C  C58  1  0.65084000  0.00807000  0.86332000  1.0
  C  C59  1  0.84696000  0.79560000  0.28611000  1.0
  C  C60  1  0.06334000  0.72817000  0.22675000  1.0
  C  C61  1  0.77272000  0.89674000  0.73628000  1.0
  C  C62  1  0.71998000  0.74393000  0.74960000  1.0
  C  C63  1  0.99868000  0.85259000  0.64428000  1.0
  C  C64  1  0.62478000  0.78324000  0.64016000  1.0
  C  C65  1  0.59740000  0.95287000  0.62029000  1.0
  C  C66  1  0.36042000  0.83939000  0.68447000  1.0
  C  C67  1  0.74072000  0.73072000  0.41130000  1.0
  C  C68  1  0.67988000  0.71203000  0.58159000  1.0
  C  C69  1  0.99186000  0.66967000  0.52514000  1.0
  C  C70  1  0.70924000  0.58390000  0.62045000  1.0
  C  C71  1  0.59770000  0.61665000  0.46094000  1.0
  C  C72  1  0.36400000  0.69662000  0.52496000  1.0
  C  C73  1  0.73158000  0.40296000  0.91009000  1.0
  C  C74  1  0.70920000  0.53056000  0.74883000  1.0
  C  C75  1  0.95008000  0.53040000  0.84764000  1.0
  C  C76  1  0.66306000  0.61433000  0.80885000  1.0
  C  C77  1  0.48722000  0.46002000  0.95205000  1.0
  C  C78  1  0.33036000  0.52051000  0.82585000  1.0
  C  C79  1  0.22302000  0.61224000  0.29703000  1.0
  C  C80  1  0.41980000  0.48842000  0.26492000  1.0
  C  C81  1  0.04140000  0.48519000  0.36963000  1.0
  C  C82  1  0.31792000  0.40604000  0.40004000  1.0
  C  C83  1  0.44704000  0.56475000  0.39610000  1.0
  C  C84  1  0.67608000  0.49706000  0.34047000  1.0
  C  C85  1  0.38954000  0.41098000  0.21340000  1.0
  C  C86  1  0.61016000  0.30442000  0.20685000  1.0
  C  C87  1  0.31562000  0.28534000  0.29033000  1.0
  C  C88  1  0.97714000  0.33777000  0.20694000  1.0
  C  C89  1  0.26568000  0.12464000  0.62770000  1.0
  C  C90  1  0.25842000  0.27952000  0.46892000  1.0
  C  C91  1  0.02082000  0.15342000  0.53935000  1.0
  C  C92  1  0.38314000  0.21741000  0.41509000  1.0
  C  C93  1  0.47722000  0.07596000  0.55843000  1.0
  C  C94  1  0.64092000  0.18023000  0.55043000  1.0
  C  C95  1  0.37460000  0.31123000  0.98800000  1.0
  C  C96  1  0.50157000  0.34204000  0.98602000  1.0
  C  C97  1  0.20074000  0.06340000  0.72125000  1.0
  C  C98  1  0.28232000  0.03906000  0.72712000  1.0
  C  C99  1  0.35590000  0.04182000  0.70047000  1.0
  C  C100  1  0.34606000  0.06918000  0.66757000  1.0
  C  C101  1  0.26660000  0.09411000  0.66147000  1.0
  C  C102  1  0.19476000  0.09129000  0.68837000  1.0
  C  C103  1  0.48682000  0.99856000  0.73626000  1.0
  C  C104  1  0.49296000  0.00829000  0.68458000  1.0
  C  C105  1  0.56910000  0.98438000  0.70116000  1.0
  C  C106  1  0.05456000  0.69252000  0.25423000  1.0
  C  C107  1  0.95340000  0.67813000  0.26606000  1.0
  C  C108  1  0.94056000  0.64330000  0.28999000  1.0
  C  C109  1  0.03044000  0.62283000  0.30167000  1.0
  C  C110  1  0.13234000  0.63628000  0.28862000  1.0
  C  C111  1  0.14428000  0.67145000  0.26507000  1.0
  C  C112  1  0.75412000  0.63544000  0.28143000  1.0
  C  C113  1  0.80676000  0.60055000  0.33035000  1.0
  C  C114  1  0.70548000  0.59220000  0.32867000  1.0
  C  C115  1  0.72250000  0.74038000  0.37588000  1.0
  C  C116  1  0.62218000  0.73464500  0.36874500  1.0
  C  C117  1  0.59454000  0.74860000  0.33505000  1.0
  C  C118  1  0.66970000  0.76862000  0.30847000  1.0
  C  C119  1  0.77020000  0.77481000  0.31506000  1.0
  C  C120  1  0.79556000  0.76117000  0.34894000  1.0
  C  C121  1  0.42212000  0.71718000  0.34865000  1.0
  C  C122  1  0.44570000  0.75907000  0.29815000  1.0
  C  C123  1  0.35000000  0.74380000  0.30187000  1.0
  C  C124  1  0.77132000  0.37396000  0.94100000  1.0
  C  C125  1  0.77582000  0.37772000  0.97022000  1.0
  C  C126  1  0.80168000  0.34971000  0.00110000  1.0
  C  C127  1  0.82596000  0.31783000  0.00229000  1.0
  C  C128  1  0.82840000  0.31408000  0.97293000  1.0
  C  C129  1  0.79960000  0.34212000  0.94234000  1.0
  C  C130  1  0.89290000  0.95010000  0.77102000  1.0
  C  C131  1  0.97422000  0.96679000  0.74557000  1.0
  C  C132  1  0.99190000  0.96019000  0.71791000  1.0
  C  C133  1  0.92276000  0.93808000  0.71495000  1.0
  C  C134  1  0.84010000  0.92112000  0.74007000  1.0
  C  C135  1  0.82656000  0.92684000  0.76853000  1.0
  C  C136  1  0.14008000  0.00208000  0.68737000  1.0
  C  C137  1  0.13672000  0.96008000  0.67622000  1.0
  C  C138  1  0.22364000  0.98027000  0.65871000  1.0
  C  C139  1  0.27478000  0.39213000  0.00024000  1.0
  C  C140  1  0.34450000  0.41580000  0.97405000  1.0
  C  C141  1  0.41840000  0.43412000  0.98066000  1.0
  C  C142  1  0.42322000  0.42829000  0.01428000  1.0
  C  C143  1  0.10968000  0.35739000  0.01298000  1.0
  C  C144  1  0.19443000  0.37060000  0.96490000  1.0
  C  C145  1  0.10770000  0.35115500  0.96882000  1.0
  C  C146  1  0.55162000  0.04906000  0.57935000  1.0
  C  C147  1  0.64772000  0.05919000  0.58511000  1.0
  C  C148  1  0.72256000  0.03465000  0.60357000  1.0
  C  C149  1  0.69802000  0.99969000  0.61850000  1.0
  C  C150  1  0.60398000  0.98902000  0.61237000  1.0
  C  C151  1  0.53128000  0.01375000  0.59225000  1.0
  C  C152  1  0.88822000  0.06618000  0.57389000  1.0
  C  C153  1  0.89646000  0.03060000  0.62682000  1.0
  C  C154  1  0.99514000  0.04427000  0.61269000  1.0
  C  C155  1  0.56768000  0.61933000  0.42891000  1.0
  C  C156  1  0.61054000  0.64612000  0.39821000  1.0
  C  C157  1  0.59394000  0.64760000  0.36708000  1.0
  C  C158  1  0.53298000  0.62209000  0.36697000  1.0
  C  C159  1  0.49600000  0.59373000  0.39748000  1.0
  C  C160  1  0.51256000  0.59262000  0.42858000  1.0
  C  C161  1  0.74252000  0.68656000  0.33113000  1.0
  C  C162  1  0.60832000  0.68795000  0.30475000  1.0
  C  C163  1  0.68462000  0.71001000  0.28193000  1.0
  C  C164  1  0.85496000  0.09688000  0.90134000  1.0
  C  C165  1  0.74960000  0.08595000  0.91131000  1.0
  C  C166  1  0.68812000  0.09376500  0.93440500  1.0
  C  C167  1  0.73484000  0.11156000  0.94871000  1.0
  C  C168  1  0.84018000  0.12273000  0.93889000  1.0
  C  C169  1  0.89992000  0.11559000  0.91486000  1.0
  C  C170  1  0.52802000  0.05948000  0.94098000  1.0
  C  C171  1  0.49868000  0.10472000  0.94670000  1.0
  C  C172  1  0.40392000  0.08916500  0.94975000  1.0
  C  C173  1  0.00346000  0.99372000  0.98954000  1.0
  C  C174  1  0.98846000  0.96291000  0.98854000  1.0
  C  C175  1  0.00962000  0.05635000  0.00011000  1.0
  C  C176  1  0.73764000  0.70902000  0.75266000  1.0
  C  C177  1  0.79236000  0.70681000  0.72512000  1.0
  C  C178  1  0.79928000  0.67588000  0.72358000  1.0
  C  C179  1  0.75528000  0.64606000  0.75108000  1.0
  C  C180  1  0.70348000  0.64701500  0.77971000  1.0
  C  C181  1  0.69430000  0.67875000  0.78036000  1.0
  C  C182  1  0.85510000  0.70207000  0.66157000  1.0
  C  C183  1  0.89008000  0.64840000  0.69048000  1.0
  C  C184  1  0.92296000  0.65959000  0.65678000  1.0
  C  C185  1  0.61802000  0.74925000  0.64161000  1.0
  C  C186  1  0.58584000  0.71986000  0.67187000  1.0
  C  C187  1  0.58396000  0.68739000  0.67307000  1.0
  C  C188  1  0.61690000  0.68472000  0.64353000  1.0
  C  C189  1  0.65018000  0.71391000  0.61327000  1.0
  C  C190  1  0.64936000  0.74601000  0.61251000  1.0
  C  C191  1  0.48950000  0.65626000  0.73112000  1.0
  C  C192  1  0.56874000  0.62410000  0.71233000  1.0
  C  C193  1  0.52032000  0.60379000  0.74409000  1.0
  C  C194  1  0.75646000  0.57750000  0.65201000  1.0
  C  C195  1  0.86424000  0.58528000  0.64897000  1.0
  C  C196  1  0.92056000  0.57548000  0.67772000  1.0
  C  C197  1  0.86586000  0.55920000  0.71000000  1.0
  C  C198  1  0.75858000  0.55088000  0.71389000  1.0
  C  C199  1  0.70390000  0.55949000  0.68475000  1.0
  C  C200  1  0.10208000  0.58649000  0.64732000  1.0
  C  C201  1  0.09258000  0.58274000  0.69687000  1.0
  C  C202  1  0.19586000  0.58859000  0.68323000  1.0
  C  C203  1  0.24872000  0.31184000  0.43684000  1.0
  C  C204  1  0.21216000  0.31133000  0.40851000  1.0
  C  C205  1  0.20704000  0.34175000  0.37732000  1.0
  C  C206  1  0.24190000  0.37274000  0.37495000  1.0
  C  C207  1  0.28144000  0.37341000  0.40283000  1.0
  C  C208  1  0.28250000  0.34303000  0.43384000  1.0
  C  C209  1  0.11924000  0.31487000  0.34759000  1.0
  C  C210  1  0.17436000  0.36639000  0.31569000  1.0
  C  C211  1  0.12952000  0.35480000  0.29628000  1.0
  C  C212  1  0.44846000  0.42319000  0.23239000  1.0
  C  C213  1  0.55116000  0.41096000  0.24088000  1.0
  C  C214  1  0.61238000  0.42482000  0.25596000  1.0
  C  C215  1  0.56852000  0.45082000  0.26293000  1.0
  C  C216  1  0.46382000  0.46194000  0.25621000  1.0
  C  C217  1  0.40432000  0.44836000  0.24063000  1.0
  C  C218  1  0.75854000  0.38127000  0.27117000  1.0
  C  C219  1  0.80004000  0.43043000  0.26527000  1.0
  C  C220  1  0.88748000  0.40924000  0.27322000  1.0
  C  C221  1  0.39106000  0.24922000  0.38162000  1.0
  C  C222  1  0.43358000  0.27875000  0.37990000  1.0
  C  C223  1  0.43742000  0.31029000  0.34995000  1.0
  C  C224  1  0.39662000  0.31226000  0.32098000  1.0
  C  C225  1  0.35326000  0.28306000  0.32181000  1.0
  C  C226  1  0.35128000  0.25143000  0.35233000  1.0
  C  C227  1  0.54152000  0.34090000  0.37227000  1.0
  C  C228  1  0.45488000  0.37347000  0.32949000  1.0
  C  C229  1  0.50200000  0.39325000  0.34066000  1.0
  C  C230  1  0.37042000  0.97975000  0.89343000  1.0
  C  C231  1  0.37260000  0.96600000  0.92869000  1.0
  C  C232  1  0.46530000  0.96750000  0.94272000  1.0
  C  C233  1  0.55656000  0.98176500  0.92078000  1.0
  C  C234  1  0.55366000  0.99559000  0.88546000  1.0
  C  C235  1  0.45970000  0.99547000  0.87176000  1.0
  C  C236  1  0.38400000  0.95074000  0.00148000  1.0
  C  C237  1  0.55164000  0.94306000  0.99741000  1.0
  C  C238  1  0.39112000  0.79250000  0.19980000  1.0
  C  C239  1  0.37204000  0.75958000  0.20386000  1.0
  C  C240  1  0.45574000  0.73874000  0.20174000  1.0
  C  C241  1  0.50196000  0.67869000  0.21360000  1.0
  C  C242  1  0.45554000  0.65381000  0.20907000  1.0
  C  C243  1  0.27932000  0.83005000  0.66908000  1.0
  C  C244  1  0.31440000  0.81473000  0.64872000  1.0
  C  C245  1  0.24816000  0.81243000  0.62675000  1.0
  C  C246  1  0.14500000  0.82526000  0.62559000  1.0
  C  C247  1  0.10698000  0.83900000  0.64709000  1.0
  C  C248  1  0.17400000  0.84104000  0.66929000  1.0
  C  C249  1  0.35922000  0.77306500  0.61125500  1.0
  C  C250  1  0.26302000  0.80887000  0.57266000  1.0
  C  C251  1  0.32106000  0.78930000  0.56061000  1.0
  C  C252  1  0.25581000  0.69270000  0.53997000  1.0
  C  C253  1  0.22514000  0.70962000  0.55905000  1.0
  C  C254  1  0.11814000  0.71329000  0.56725000  1.0
  C  C255  1  0.04204000  0.69986000  0.55615000  1.0
  C  C256  1  0.07290000  0.68195000  0.53787000  1.0
  C  C257  1  0.18012000  0.67771000  0.53045000  1.0
  C  C258  1  0.00927000  0.75558000  0.57882000  1.0
  C  C259  1  0.12920000  0.72910000  0.61310000  1.0
  C  C260  1  0.07484000  0.75110000  0.62277000  1.0
  C  C261  1  0.23360000  0.54034000  0.81584000  1.0
  C  C262  1  0.23494000  0.57356000  0.78802000  1.0
  C  C263  1  0.14090000  0.59285000  0.77900000  1.0
  C  C264  1  0.04626000  0.57806000  0.79869000  1.0
  C  C265  1  0.04674000  0.54505000  0.82673000  1.0
  C  C266  1  0.13954000  0.52608000  0.83501000  1.0
  C  C267  1  0.21482000  0.64123000  0.72377000  1.0
  C  C268  1  0.06862000  0.65208000  0.74478000  1.0
  C  C269  1  0.09954000  0.68061000  0.71475000  1.0
  C  C270  1  0.77048000  0.47587000  0.35030000  1.0
  C  C271  1  0.77092000  0.44138000  0.35702000  1.0
  C  C272  1  0.86326000  0.42127000  0.36689000  1.0
  C  C273  1  0.95288000  0.43604000  0.37091000  1.0
  C  C274  1  0.95030000  0.47030000  0.36458000  1.0
  C  C275  1  0.86052000  0.49034000  0.35367000  1.0
  C  C276  1  0.81018000  0.37258000  0.35795000  1.0
  C  C277  1  0.92760000  0.36038000  0.39337000  1.0
  C  C278  1  0.90614000  0.33150000  0.39083000  1.0
  C  C279  1  0.87690000  0.32193000  0.22533000  1.0
  C  C280  1  0.86550000  0.30657000  0.26091000  1.0
  C  C281  1  0.76810000  0.29220000  0.27883000  1.0
  C  C282  1  0.68472000  0.29194500  0.26041000  1.0
  C  C283  1  0.69714000  0.30665500  0.22486500  1.0
  C  C284  1  0.79206000  0.32258000  0.20726000  1.0
  C  C285  1  0.80988000  0.28621000  0.33491000  1.0
  C  C286  1  0.67768000  0.25672000  0.33683000  1.0
  C  C287  1  0.69092000  0.25138000  0.36904000  1.0
  C  C288  1  0.73564000  0.16097000  0.56525000  1.0
  C  C289  1  0.73116000  0.13768000  0.60017000  1.0
  C  C290  1  0.82200000  0.11958000  0.61528000  1.0
  C  C291  1  0.91826000  0.12664000  0.59513000  1.0
  C  C292  1  0.92136000  0.14867000  0.56000000  1.0
  C  C293  1  0.82982000  0.16549000  0.54495000  1.0
  C  C294  1  0.73092000  0.07344000  0.66846000  1.0
  C  C295  1  0.89448000  0.08111500  0.67124500  1.0
  C  C296  1  0.85524000  0.05454000  0.70166000  1.0
  Cd  Cd297  1  0.93986000  0.17504000  0.02548000  1.0
  Cd  Cd298  1  0.83060000  0.15476000  0.10677000  1.0
  Cd  Cd299  1  0.97664000  0.79523000  0.13294000  1.0
  Cd  Cd300  1  0.17622000  0.41876000  0.14724000  1.0
  Cd  Cd301  1  0.97924000  0.83384000  0.18501000  1.0
  Cd  Cd302  1  0.30402000  0.33868000  0.18309000  1.0
  Cd  Cd303  1  0.06523000  0.22222000  0.94427000  1.0
  Cd  Cd304  1  0.84840000  0.08321000  0.79146000  1.0
  Cd  Cd305  1  0.00878000  0.92248000  0.89358000  1.0
  Cd  Cd306  1  0.97497000  0.01121000  0.84907000  1.0
  Cd  Cd307  1  0.08674000  0.86636000  0.23284000  1.0
  Cd  Cd308  1  0.54911000  0.81982000  0.76241000  1.0
  Cd  Cd309  1  0.72862000  0.88229000  0.59414000  1.0
  Cd  Cd310  1  0.68130000  0.84861000  0.68207000  1.0
  Cd  Cd311  1  0.63452000  0.75312000  0.48466000  1.0
  Cd  Cd312  1  0.81814000  0.59102000  0.53028000  1.0
  Cd  Cd313  1  0.67594000  0.66438000  0.51833000  1.0
  Cd  Cd314  1  0.54792000  0.44920000  0.82783000  1.0
  Cd  Cd315  1  0.69936000  0.54038000  0.90478000  1.0
  Cd  Cd316  1  0.63858000  0.50629000  0.85255000  1.0
  Cd  Cd317  1  0.49642000  0.57241000  0.27245000  1.0
  Cd  Cd318  1  0.26846000  0.47737000  0.43026000  1.0
  Cd  Cd319  1  0.35512000  0.51333000  0.34453000  1.0
  Cd  Cd320  1  0.34554000  0.24991000  0.22270000  1.0
  Cd  Cd321  1  0.36130000  0.22307000  0.56402000  1.0
  Cd  Cd322  1  0.25474000  0.12425000  0.48783000  1.0
  Cd  Cd323  1  0.34308000  0.17463000  0.52158000  1.0
  H  H324  1  0.46898000  0.33388000  0.03790000  1.0
  H  H325  1  0.22028000  0.26436000  0.02472000  1.0
  H  H326  1  0.84960000  0.29641000  0.02566000  1.0
  H  H327  1  0.47766000  0.44286000  0.01973000  1.0
  H  H328  1  0.08572000  0.35549000  0.03756000  1.0
  H  H329  1  0.22854000  0.36881500  0.05415500  1.0
  H  H330  1  0.99174000  0.90748000  0.01724000  1.0
  H  H331  1  0.15556000  0.00971000  0.06001000  1.0
  H  H332  1  0.14482000  0.07536500  0.04495000  1.0
  H  H333  1  0.63906000  0.09706500  0.04026000  1.0
  H  H334  1  0.42054000  0.17658000  0.03306000  1.0
  H  H335  1  0.34950000  0.03794500  0.03345500  1.0
  H  H336  1  0.67580000  0.05759500  0.02271000  1.0
  H  H337  1  0.64812000  0.99898000  0.02217000  1.0
  H  H338  1  0.56678000  0.92242000  0.05199000  1.0
  H  H339  1  0.33552000  0.31479000  0.07713000  1.0
  H  H340  1  0.07944000  0.24327000  0.12345000  1.0
  H  H341  1  0.77238000  0.30252000  0.07230000  1.0
  H  H342  1  0.79643000  0.33114000  0.11147000  1.0
  H  H343  1  0.71098000  0.05844500  0.08975000  1.0
  H  H344  1  0.56574000  0.95477500  0.11076500  1.0
  H  H345  1  0.53392000  0.04885000  0.11314000  1.0
  H  H346  1  0.34352000  0.02680500  0.11286500  1.0
  H  H347  1  0.06314000  0.96071000  0.07179000  1.0
  H  H348  1  0.99642000  0.00440000  0.13049000  1.0
  H  H349  1  0.71794000  0.94798500  0.13871500  1.0
  H  H350  1  0.28426000  0.71360000  0.18329000  1.0
  H  H351  1  0.80112000  0.33430000  0.17975000  1.0
  H  H352  1  0.62382000  0.73625000  0.19180000  1.0
  H  H353  1  0.50962000  0.83045000  0.18974000  1.0
  H  H354  1  0.31926000  0.09469000  0.01671000  1.0
  H  H355  1  0.32034000  0.29908000  0.97979000  1.0
  H  H356  1  0.56832000  0.35919000  0.97697000  1.0
  H  H357  1  0.40330000  0.07205000  0.64694000  1.0
  H  H358  1  0.13406000  0.11081000  0.68355000  1.0
  H  H359  1  0.46476000  1.00000000  0.75943000  1.0
  H  H360  1  0.47653000  0.01805000  0.65834000  1.0
  H  H361  1  0.62380000  0.97208000  0.69030000  1.0
  H  H362  1  0.28716000  0.01750000  0.75232000  1.0
  H  H363  1  0.02044000  0.59563000  0.31910000  1.0
  H  H364  1  0.22238000  0.68216000  0.25456000  1.0
  H  H365  1  0.75372000  0.65580000  0.25544000  1.0
  H  H366  1  0.85450000  0.58740000  0.35174000  1.0
  H  H367  1  0.65936000  0.57123000  0.34864000  1.0
  H  H368  1  0.88482000  0.69392000  0.25574000  1.0
  H  H369  1  0.65098000  0.77911000  0.28236000  1.0
  H  H370  1  0.87168000  0.76669000  0.35439000  1.0
  H  H371  1  0.43470000  0.69832000  0.37452000  1.0
  H  H372  1  0.47804000  0.78100000  0.27534000  1.0
  H  H373  1  0.29464000  0.75142000  0.28258000  1.0
  H  H374  1  0.56440000  0.72037000  0.38972000  1.0
  H  H375  1  0.79916000  0.33917000  0.91972000  1.0
  H  H376  1  0.84303000  0.40751000  0.01017000  1.0
  H  H377  1  0.75366000  0.40207000  0.96939000  1.0
  H  H378  1  0.93480000  0.93364000  0.69315000  1.0
  H  H379  1  0.76552000  0.91323000  0.78866000  1.0
  H  H380  1  0.11802000  0.01959000  0.69742000  1.0
  H  H381  1  0.11588000  0.93655000  0.67631000  1.0
  H  H382  1  0.28224000  0.97583000  0.64210000  1.0
  H  H383  1  0.02840000  0.98315000  0.74865000  1.0
  H  H384  1  0.33916000  0.42093000  0.94817000  1.0
  H  H385  1  0.25288000  0.38029000  0.94338000  1.0
  H  H386  1  0.08505000  0.34333000  0.95086000  1.0
  H  H387  1  0.75752000  0.98073000  0.63176000  1.0
  H  H388  1  0.46030000  0.00556000  0.58643000  1.0
  H  H389  1  0.85810000  0.08072000  0.54910000  1.0
  H  H390  1  0.87594000  0.01134000  0.65282000  1.0
  H  H391  1  0.06656000  0.03844000  0.62556000  1.0
  H  H392  1  0.66730000  0.08626000  0.57371000  1.0
  H  H393  1  0.51968000  0.62336000  0.34293000  1.0
  H  H394  1  0.48572000  0.57067000  0.45240000  1.0
  H  H395  1  0.79474000  0.67959000  0.35117000  1.0
  H  H396  1  0.53184000  0.68311000  0.29902000  1.0
  H  H397  1  0.67934000  0.72569000  0.25490000  1.0
  H  H398  1  0.66006000  0.66512000  0.39869000  1.0
  H  H399  1  0.68814000  0.11779500  0.96653500  1.0
  H  H400  1  0.98056000  0.12478000  0.90652000  1.0
  H  H401  1  0.56879000  0.03935500  0.93722500  1.0
  H  H402  1  0.50910000  0.12833500  0.94782500  1.0
  H  H403  1  0.32626000  0.09805500  0.95429500  1.0
  H  H404  1  0.71393000  0.07276000  0.89968000  1.0
  H  H405  1  0.99536000  0.01807000  0.96683000  1.0
  H  H406  1  0.95583000  0.06161000  0.98091000  1.0
  H  H407  1  0.76094000  0.62200000  0.75012000  1.0
  H  H408  1  0.65218000  0.67993000  0.80191000  1.0
  H  H409  1  0.82792000  0.72791000  0.65476000  1.0
  H  H410  1  0.89908000  0.62274000  0.71124000  1.0
  H  H411  1  0.96258000  0.64471000  0.64582000  1.0
  H  H412  1  0.82804000  0.72964000  0.70413000  1.0
  H  H413  1  0.61476000  0.66016000  0.64376000  1.0
  H  H414  1  0.67510000  0.76864000  0.58915000  1.0
  H  H415  1  0.45830000  0.67866000  0.73280000  1.0
  H  H416  1  0.61618000  0.61504000  0.69689000  1.0
  H  H417  1  0.52142000  0.57596000  0.75783000  1.0
  H  H418  1  0.56392000  0.72233000  0.69448000  1.0
  H  H419  1  0.90798000  0.55123000  0.73248000  1.0
  H  H420  1  0.62202000  0.55198000  0.68756000  1.0
  H  H421  1  0.08082000  0.58652000  0.62452000  1.0
  H  H422  1  0.06376000  0.58015000  0.72142000  1.0
  H  H423  1  0.26274000  0.59079000  0.69532000  1.0
  H  H424  1  0.90474000  0.59858000  0.62382000  1.0
  H  H425  1  0.23786000  0.39658000  0.35154000  1.0
  H  H426  1  0.31270000  0.34353000  0.45541000  1.0
  H  H427  1  0.10022000  0.29033500  0.36955000  1.0
  H  H428  1  0.20964000  0.39145000  0.30614000  1.0
  H  H429  1  0.12297000  0.36905000  0.26916000  1.0
  H  H430  1  0.18890000  0.28698000  0.41094000  1.0
  H  H431  1  0.61432000  0.46154000  0.27487000  1.0
  H  H432  1  0.32438000  0.45761000  0.23469000  1.0
  H  H433  1  0.71294000  0.36040000  0.27270000  1.0
  H  H434  1  0.79700000  0.45689000  0.26048000  1.0
  H  H435  1  0.96530000  0.41594000  0.27619000  1.0
  H  H436  1  0.58512000  0.39170000  0.23439000  1.0
  H  H437  1  0.40024000  0.33642000  0.29758000  1.0
  H  H438  1  0.31772000  0.22880000  0.35338000  1.0
  H  H439  1  0.57636000  0.31841000  0.39220000  1.0
  H  H440  1  0.40322000  0.38273000  0.30908000  1.0
  H  H441  1  0.49524000  0.42079000  0.33044000  1.0
  H  H442  1  0.46104000  0.27740000  0.40258000  1.0
  H  H443  1  0.62954000  0.98278000  0.93099000  1.0
  H  H444  1  0.45768000  0.00568000  0.84454000  1.0
  H  H445  1  0.30344000  0.95800000  0.99489000  1.0
  H  H446  1  0.63214000  0.94187000  0.98769000  1.0
  H  H447  1  0.30222000  0.95386000  0.94508000  1.0
  H  H448  1  0.57822000  0.67689000  0.22332000  1.0
  H  H449  1  0.48880000  0.62888000  0.21456000  1.0
  H  H450  1  0.29159000  0.75031000  0.20836000  1.0
  H  H451  1  0.09346000  0.82398000  0.60830000  1.0
  H  H452  1  0.14690000  0.85335000  0.68454000  1.0
  H  H453  1  0.39384000  0.75878000  0.63529000  1.0
  H  H454  1  0.20813000  0.82929000  0.55891000  1.0
  H  H455  1  0.31920000  0.79129000  0.53570000  1.0
  H  H456  1  0.39592000  0.80633000  0.64849000  1.0
  H  H457  1  0.95890000  0.70307500  0.56213500  1.0
  H  H458  1  0.20410000  0.66532000  0.51504000  1.0
  H  H459  1  0.95968000  0.76378000  0.55792000  1.0
  H  H460  1  0.19340000  0.71202000  0.62556000  1.0
  H  H461  1  0.08878000  0.75453000  0.64436000  1.0
  H  H462  1  0.28440000  0.72132000  0.56616000  1.0
  H  H463  1  0.97210000  0.59194000  0.79237000  1.0
  H  H464  1  0.13890000  0.50050000  0.85676000  1.0
  H  H465  1  0.28458000  0.62798500  0.72016500  1.0
  H  H466  1  0.99868000  0.65018000  0.76129000  1.0
  H  H467  1  0.05758000  0.70486000  0.70333000  1.0
  H  H468  1  0.30896000  0.58406000  0.77359000  1.0
  H  H469  1  0.02504000  0.42120000  0.37850000  1.0
  H  H470  1  0.85976000  0.51692000  0.34878000  1.0
  H  H471  1  0.75474000  0.38690000  0.33916000  1.0
  H  H472  1  0.98310000  0.36206000  0.40943000  1.0
  H  H473  1  0.94218000  0.30641000  0.40440000  1.0
  H  H474  1  0.69996000  0.43042000  0.35443000  1.0
  H  H475  1  0.60892000  0.28098000  0.27347000  1.0
  H  H476  1  0.87584000  0.30386000  0.32549000  1.0
  H  H477  1  0.61750000  0.24504000  0.33007000  1.0
  H  H478  1  0.64286000  0.23499000  0.39195000  1.0
  H  H479  1  0.93216000  0.30641000  0.27438000  1.0
  H  H480  1  0.98998000  0.11355000  0.60622000  1.0
  H  H481  1  0.83264000  0.18280000  0.51782000  1.0
  H  H482  1  0.65444000  0.07568000  0.65870000  1.0
  H  H483  1  0.97470000  0.09073000  0.66508000  1.0
  H  H484  1  0.89906000  0.03959000  0.72368000  1.0
  H  H485  1  0.65670000  0.13361000  0.61544000  1.0
  N  N486  1  0.71024000  0.16513000  0.02218000  1.0
  N  N487  1  0.77764000  0.17174000  0.03886000  1.0
  N  N488  1  0.99200000  0.19741000  0.05461000  1.0
  N  N489  1  0.06818000  0.22029000  0.04557000  1.0
  N  N490  1  0.16788000  0.14722500  0.03362000  1.0
  N  N491  1  0.36753000  0.30967000  0.01899000  1.0
  N  N492  1  0.80532000  0.35377000  0.03102000  1.0
  N  N493  1  0.04956000  0.02492000  0.02008000  1.0
  N  N494  1  0.50429000  0.05886500  0.02846000  1.0
  N  N495  1  0.48200000  0.00892000  0.02793000  1.0
  N  N496  1  0.41230000  0.93756000  0.03356000  1.0
  N  N497  1  0.73286000  0.16656000  0.06864000  1.0
  N  N498  1  0.63484000  0.15556000  0.07272000  1.0
  N  N499  1  0.93214000  0.09369000  0.06634000  1.0
  N  N500  1  0.93166000  0.12283000  0.06811000  1.0
  N  N501  1  0.90267000  0.11620000  0.09968000  1.0
  N  N502  1  0.88366000  0.08307000  0.11924000  1.0
  N  N503  1  0.99136000  0.20910000  0.09651000  1.0
  N  N504  1  0.94656000  0.19110000  0.08457000  1.0
  N  N505  1  0.03072000  0.89340000  0.11080000  1.0
  N  N506  1  0.02974000  0.84397000  0.11229000  1.0
  N  N507  1  0.03708000  0.86638000  0.07962000  1.0
  N  N508  1  0.37204000  0.37184000  0.10381000  1.0
  N  N509  1  0.27322000  0.40573000  0.11645000  1.0
  N  N510  1  0.28492000  0.42177000  0.08297000  1.0
  N  N511  1  0.82527000  0.37782000  0.06439000  1.0
  N  N512  1  0.58866000  0.00250000  0.11144000  1.0
  N  N513  1  0.42676000  0.98369000  0.11186500  1.0
  N  N514  1  0.89498000  0.90980000  0.15432000  1.0
  N  N515  1  0.83790000  0.80420000  0.15383000  1.0
  N  N516  1  0.74554000  0.79084000  0.15594000  1.0
  N  N517  1  0.02346000  0.85977000  0.13099000  1.0
  N  N518  1  0.32564000  0.37629000  0.12921000  1.0
  N  N519  1  0.23412000  0.25701000  0.16357000  1.0
  N  N520  1  0.25172000  0.30517000  0.16469000  1.0
  N  N521  1  0.22278000  0.31407000  0.13397000  1.0
  N  N522  1  0.98390000  0.93245000  0.17960000  1.0
  N  N523  1  0.95222000  0.88562000  0.17724000  1.0
  N  N524  1  0.83610000  0.81882000  0.17362000  1.0
  N  N525  1  0.04120000  0.76913000  0.17819000  1.0
  N  N526  1  0.21350000  0.81461000  0.18290000  1.0
  N  N527  1  0.28406000  0.40973000  0.18081000  1.0
  N  N528  1  0.25786000  0.27136000  0.18202000  1.0
  N  N529  1  0.09014000  0.37477000  0.17535000  1.0
  N  N530  1  0.98798000  0.37152000  0.18475000  1.0
  N  N531  1  0.00417000  0.89913000  0.19221000  1.0
  N  N532  1  0.74028000  0.81579000  0.18924000  1.0
  N  N533  1  0.06172000  0.73584000  0.19396000  1.0
  N  N534  1  0.14264000  0.83226000  0.19169000  1.0
  N  N535  1  0.31262000  0.42937000  0.19339000  1.0
  N  N536  1  0.33940000  0.38090000  0.19217000  1.0
  N  N537  1  0.54220000  0.33066000  0.19142000  1.0
  N  N538  1  0.45768000  0.31585000  0.18893000  1.0
  N  N539  1  0.13906000  0.34490000  0.19085000  1.0
  N  N540  1  0.36076000  0.66513000  0.19650000  1.0
  N  N541  1  0.85410000  0.25010000  0.00189000  1.0
  N  N542  1  0.91326000  0.22912000  0.99392000  1.0
  N  N543  1  0.96282000  0.24695000  0.96357000  1.0
  N  N544  1  0.93648000  0.27987000  0.95017000  1.0
  N  N545  1  0.94972000  0.17099000  0.93216000  1.0
  N  N546  1  0.96860000  0.18336000  0.95268000  1.0
  N  N547  1  0.92096000  0.16497000  0.98330000  1.0
  N  N548  1  0.86610000  0.14003000  0.98356000  1.0
  N  N549  1  0.10166000  0.17038000  0.01371000  1.0
  N  N550  1  0.15142000  0.19112000  0.98414000  1.0
  N  N551  1  0.25146000  0.18206000  0.98316000  1.0
  N  N552  1  0.12490000  0.03549000  0.78217000  1.0
  N  N553  1  0.03814000  0.04107000  0.79766000  1.0
  N  N554  1  0.98322000  0.06633000  0.77517000  1.0
  N  N555  1  0.03276000  0.07902000  0.74452000  1.0
  N  N556  1  0.87850000  0.10663000  0.84269000  1.0
  N  N557  1  0.91288000  0.08646000  0.82965000  1.0
  N  N558  1  0.96114000  0.05902000  0.85220000  1.0
  N  N559  1  0.96030000  0.06102000  0.88074000  1.0
  N  N560  1  0.20950000  0.00267000  0.86306000  1.0
  N  N561  1  0.12448000  0.98754000  0.86154000  1.0
  N  N562  1  0.13854000  0.95379000  0.87628000  1.0
  N  N563  1  0.23146000  0.94558000  0.88891000  1.0
  N  N564  1  0.96230000  0.99219000  0.92626000  1.0
  N  N565  1  0.95444000  0.98096000  0.90398000  1.0
  N  N566  1  0.95030000  0.94698000  0.92009000  1.0
  N  N567  1  0.95826000  0.93501000  0.95294000  1.0
  N  N568  1  0.90960000  0.92779000  0.83240000  1.0
  N  N569  1  0.93058000  0.94298000  0.85039000  1.0
  N  N570  1  0.92634000  0.97671000  0.83196000  1.0
  N  N571  1  0.90204000  0.98478000  0.80101000  1.0
  N  N572  1  0.74558000  0.99364000  0.87292000  1.0
  N  N573  1  0.81240000  0.01399000  0.84777000  1.0
  N  N574  1  0.76180000  0.03964000  0.82412000  1.0
  N  N575  1  0.65912000  0.03718000  0.83314000  1.0
  N  N576  1  0.84578000  0.79835000  0.25481000  1.0
  N  N577  1  0.92322000  0.81998000  0.23647000  1.0
  N  N578  1  0.96940000  0.82982000  0.25561000  1.0
  N  N579  1  0.92396000  0.81524000  0.28698000  1.0
  N  N580  1  0.02614000  0.78122000  0.20005000  1.0
  N  N581  1  0.03832000  0.75602000  0.23112000  1.0
  N  N582  1  0.18454000  0.84305000  0.21074000  1.0
  N  N583  1  0.28378000  0.83243000  0.21557000  1.0
  N  N584  1  0.78408000  0.89133000  0.70898000  1.0
  N  N585  1  0.71328000  0.86763000  0.71548000  1.0
  N  N586  1  0.66016000  0.85907000  0.74505000  1.0
  N  N587  1  0.69548000  0.87654000  0.75927000  1.0
  N  N588  1  0.65240000  0.75164000  0.77022000  1.0
  N  N589  1  0.64572000  0.78572000  0.75365000  1.0
  N  N590  1  0.70312000  0.79829000  0.72426000  1.0
  N  N591  1  0.75146000  0.77282000  0.72105000  1.0
  N  N592  1  0.92682000  0.84544000  0.67095000  1.0
  N  N593  1  0.83652000  0.85704000  0.65677000  1.0
  N  N594  1  0.85312000  0.87038000  0.62344000  1.0
  N  N595  1  0.95328000  0.86754000  0.61457000  1.0
  N  N596  1  0.62542000  0.78836000  0.66754000  1.0
  N  N597  1  0.64984000  0.82129000  0.65468000  1.0
  N  N598  1  0.66102000  0.83544000  0.62126000  1.0
  N  N599  1  0.64830000  0.81246000  0.61110000  1.0
  N  N600  1  0.62152000  0.94360000  0.59590000  1.0
  N  N601  1  0.64482000  0.91061000  0.61279000  1.0
  N  N602  1  0.63872000  0.89999000  0.64575000  1.0
  N  N603  1  0.61068000  0.92612000  0.65150000  1.0
  N  N604  1  0.45544000  0.85037000  0.66758000  1.0
  N  N605  1  0.51684000  0.84750000  0.69076000  1.0
  N  N606  1  0.46246000  0.83559000  0.72056000  1.0
  N  N607  1  0.36340000  0.82928000  0.71801000  1.0
  N  N608  1  0.73120000  0.69836000  0.43791000  1.0
  N  N609  1  0.71892000  0.70273000  0.46535000  1.0
  N  N610  1  0.71756000  0.73604000  0.45550000  1.0
  N  N611  1  0.72950000  0.75428000  0.42217000  1.0
  N  N612  1  0.68882000  0.74026000  0.55104000  1.0
  N  N613  1  0.69704000  0.72815000  0.52923000  1.0
  N  N614  1  0.69068000  0.69425000  0.54505000  1.0
  N  N615  1  0.67968000  0.68315000  0.57829000  1.0
  N  N616  1  0.89654000  0.68473000  0.51867000  1.0
  N  N617  1  0.83964000  0.66297000  0.51472000  1.0
  N  N618  1  0.89684000  0.63582000  0.51861000  1.0
  N  N619  1  0.99338000  0.63870000  0.52583000  1.0
  N  N620  1  0.66700000  0.61468000  0.59888000  1.0
  N  N621  1  0.67946000  0.61663000  0.56825000  1.0
  N  N622  1  0.72992000  0.58862000  0.57115000  1.0
  N  N623  1  0.75108000  0.56808000  0.60283000  1.0
  N  N624  1  0.67578000  0.59550000  0.47785000  1.0
  N  N625  1  0.69884000  0.60661000  0.49901000  1.0
  N  N626  1  0.63870000  0.63299000  0.49578000  1.0
  N  N627  1  0.57576000  0.64084000  0.47111000  1.0
  N  N628  1  0.43276000  0.67051000  0.53065000  1.0
  N  N629  1  0.52294000  0.68645000  0.51529000  1.0
  N  N630  1  0.50872000  0.72018000  0.50102000  1.0
  N  N631  1  0.41044000  0.72762000  0.50715000  1.0
  N  N632  1  0.73522000  0.43632000  0.90297000  1.0
  N  N633  1  0.68076000  0.45304000  0.87596000  1.0
  N  N634  1  0.64360000  0.43101000  0.86757000  1.0
  N  N635  1  0.67388000  0.39925000  0.88818000  1.0
  N  N636  1  0.65734000  0.50071000  0.75972000  1.0
  N  N637  1  0.63804000  0.48949000  0.79274000  1.0
  N  N638  1  0.67350000  0.51129000  0.80185000  1.0
  N  N639  1  0.72072000  0.53733000  0.77483000  1.0
  N  N640  1  0.87360000  0.51811000  0.83764000  1.0
  N  N641  1  0.79254000  0.51431000  0.85963000  1.0
  N  N642  1  0.81802000  0.52407000  0.88165000  1.0
  N  N643  1  0.91632000  0.53529000  0.87438000  1.0
  N  N644  1  0.64590000  0.58562000  0.80638000  1.0
  N  N645  1  0.63342000  0.56066000  0.83808000  1.0
  N  N646  1  0.64428000  0.57344000  0.85895000  1.0
  N  N647  1  0.66474000  0.60682000  0.84166000  1.0
  N  N648  1  0.54606000  0.48352000  0.95416000  1.0
  N  N649  1  0.59348000  0.50087000  0.92329000  1.0
  N  N650  1  0.56640000  0.48895000  0.90320000  1.0
  N  N651  1  0.49938000  0.46311000  0.92041000  1.0
  N  N652  1  0.41394000  0.53107000  0.83480000  1.0
  N  N653  1  0.48318000  0.50598000  0.84131000  1.0
  N  N654  1  0.44398000  0.48159000  0.83655000  1.0
  N  N655  1  0.34774000  0.48991000  0.82640000  1.0
  N  N656  1  0.21568000  0.57884000  0.32102000  1.0
  N  N657  1  0.30588000  0.56499000  0.31639000  1.0
  N  N658  1  0.36560000  0.58863000  0.29127000  1.0
  N  N659  1  0.31600000  0.61862000  0.27787000  1.0
  N  N660  1  0.45782000  0.52077000  0.24918000  1.0
  N  N661  1  0.42516000  0.53340000  0.26981000  1.0
  N  N662  1  0.37354000  0.50979000  0.29768000  1.0
  N  N663  1  0.36988000  0.48093000  0.29562000  1.0
  N  N664  1  0.12336000  0.49836000  0.34610000  1.0
  N  N665  1  0.19626000  0.50272000  0.36273000  1.0
  N  N666  1  0.16052000  0.49261000  0.39466000  1.0
  N  N667  1  0.06386000  0.48042000  0.40029000  1.0
  N  N668  1  0.34020000  0.43484000  0.37035000  1.0
  N  N669  1  0.35230000  0.45901000  0.37915000  1.0
  N  N670  1  0.33684000  0.44570000  0.41256000  1.0
  N  N671  1  0.31360000  0.41267000  0.42650000  1.0
  N  N672  1  0.39534000  0.53821000  0.42268000  1.0
  N  N673  1  0.36566000  0.51913000  0.40948000  1.0
  N  N674  1  0.39676000  0.53291000  0.37691000  1.0
  N  N675  1  0.44792000  0.56181000  0.36746000  1.0
  N  N676  1  0.57964000  0.48676000  0.35660000  1.0
  N  N677  1  0.51854000  0.51314000  0.33910000  1.0
  N  N678  1  0.57428000  0.53802000  0.31366000  1.0
  N  N679  1  0.67442000  0.52872000  0.31334000  1.0
  N  N680  1  0.40752000  0.38079000  0.21282000  1.0
  N  N681  1  0.47313000  0.28219000  0.20265000  1.0
  N  N682  1  0.56662000  0.27399000  0.21493000  1.0
  N  N683  1  0.30584000  0.31507000  0.26110000  1.0
  N  N684  1  0.29114000  0.30541000  0.23799000  1.0
  N  N685  1  0.29228000  0.27143000  0.25248000  1.0
  N  N686  1  0.30928000  0.25796000  0.28497000  1.0
  N  N687  1  0.07034000  0.32079000  0.21128000  1.0
  N  N688  1  0.28262000  0.12360000  0.59801000  1.0
  N  N689  1  0.29712000  0.15615000  0.57473000  1.0
  N  N690  1  0.29108000  0.17584000  0.58957000  1.0
  N  N691  1  0.27318000  0.15707000  0.62283000  1.0
  N  N692  1  0.27982000  0.27819000  0.49841000  1.0
  N  N693  1  0.29806000  0.24522000  0.51844000  1.0
  N  N694  1  0.29238000  0.22731000  0.50211000  1.0
  N  N695  1  0.26576000  0.24801000  0.47094000  1.0
  N  N696  1  0.10536000  0.16866000  0.54243000  1.0
  N  N697  1  0.18328000  0.16184000  0.52494000  1.0
  N  N698  1  0.14828000  0.14296000  0.51239000  1.0
  N  N699  1  0.04618000  0.13682000  0.52101000  1.0
  N  N700  1  0.40730000  0.21669000  0.44415000  1.0
  N  N701  1  0.37222000  0.18673000  0.46880000  1.0
  N  N702  1  0.33028000  0.16967000  0.45538000  1.0
  N  N703  1  0.33390000  0.18807000  0.42183000  1.0
  N  N704  1  0.41040000  0.07323000  0.53802000  1.0
  N  N705  1  0.36532000  0.10401000  0.52327000  1.0
  N  N706  1  0.40202000  0.12438000  0.53385000  1.0
  N  N707  1  0.47238000  0.10759000  0.55606000  1.0
  N  N708  1  0.58020000  0.17190000  0.53232000  1.0
  N  N709  1  0.48986000  0.18813000  0.53195000  1.0
  N  N710  1  0.49590000  0.20538000  0.54904000  1.0
  N  N711  1  0.58832000  0.20035000  0.56184000  1.0
  N  N712  1  0.45550000  0.33097000  0.96718000  1.0
  N  N713  1  0.44094000  0.01716000  0.70684000  1.0
  N  N714  1  0.56574000  0.97819000  0.73367000  1.0
  N  N715  1  0.83724000  0.62787000  0.30050000  1.0
  N  N716  1  0.67168000  0.61402000  0.29797000  1.0
  N  N717  1  0.49158000  0.74221000  0.32774000  1.0
  N  N718  1  0.33472000  0.71740000  0.33358000  1.0
  N  N719  1  0.08398000  0.97395000  0.69428000  1.0
  N  N720  1  0.22606000  0.00676000  0.66558000  1.0
  N  N721  1  0.19620000  0.37440000  0.99293000  1.0
  N  N722  1  0.05422000  0.34275000  0.99902000  1.0
  N  N723  1  0.82922000  0.04483000  0.60224000  1.0
  N  N724  1  0.99068000  0.06640000  0.57938000  1.0
  N  N725  1  0.64492000  0.67343000  0.33580000  1.0
  N  N726  1  0.76930000  0.70919000  0.29835000  1.0
  N  N727  1  0.57684000  0.08585000  0.94125000  1.0
  N  N728  1  0.42185000  0.06064500  0.94625500  1.0
  N  N729  1  0.04232000  0.08071000  0.00715000  1.0
  N  N730  1  0.84696000  0.67536000  0.69339000  1.0
  N  N731  1  0.90008000  0.69317000  0.63852000  1.0
  N  N732  1  0.54908000  0.65728000  0.70411000  1.0
  N  N733  1  0.47074000  0.62388000  0.75611000  1.0
  N  N734  1  0.03327000  0.58135000  0.67416000  1.0
  N  N735  1  0.20236000  0.59097000  0.65207000  1.0
  N  N736  1  0.16830000  0.34111000  0.34823000  1.0
  N  N737  1  0.09450000  0.32243000  0.31621000  1.0
  N  N738  1  0.71882000  0.41271000  0.26390000  1.0
  N  N739  1  0.86182000  0.37826000  0.27703000  1.0
  N  N740  1  0.47894000  0.34029000  0.34975000  1.0
  N  N741  1  0.55646000  0.37292000  0.36756000  1.0
  N  N742  1  0.46702000  0.95432000  0.97891000  1.0
  N  N743  1  0.43612000  0.70595000  0.20371000  1.0
  N  N744  1  0.28758000  0.79857000  0.60460000  1.0
  N  N745  1  0.38160000  0.76668000  0.58480000  1.0
  N  N746  1  0.08704000  0.73191000  0.58553000  1.0
  N  N747  1  0.99966000  0.76799000  0.60121000  1.0
  N  N748  1  0.14142000  0.62715000  0.75045000  1.0
  N  N749  1  0.19144000  0.67395000  0.70137000  1.0
  N  N750  1  0.86640000  0.38624000  0.37269000  1.0
  N  N751  1  0.83254000  0.33904000  0.36850000  1.0
  N  N752  1  0.75318000  0.27868000  0.31525000  1.0
  N  N753  1  0.77384000  0.26989000  0.36800000  1.0
  N  N754  1  0.81568000  0.09314000  0.65034000  1.0
  N  N755  1  0.75244000  0.04953000  0.70005000  1.0
