# generated using pymatgen
data_Cu2H19C32(N5O2)4
_symmetry_space_group_name_H-M   'P 1'
_cell_length_a   37.03040000
_cell_length_b   38.29300000
_cell_length_c   37.36730000
_cell_angle_alpha   96.46500000
_cell_angle_beta   96.79700000
_cell_angle_gamma   96.63600000
_symmetry_Int_Tables_number   1
_chemical_formula_structural   Cu2H19C32(N5O2)4
_chemical_formula_sum   'Cu24 H228 C384 N240 O96'
_cell_volume   51832.04887574
_cell_formula_units_Z   12
loop_
 _symmetry_equiv_pos_site_id
 _symmetry_equiv_pos_as_xyz
  1  'x, y, z'
loop_
 _atom_site_type_symbol
 _atom_site_label
 _atom_site_symmetry_multiplicity
 _atom_site_fract_x
 _atom_site_fract_y
 _atom_site_fract_z
 _atom_site_occupancy
  Cu  Cu0  1  0.49256000  0.90064000  0.56223000  1.0
  Cu  Cu1  1  0.20131000  0.87346000  0.49001000  1.0
  Cu  Cu2  1  0.21334000  0.80798000  0.50326000  1.0
  Cu  Cu3  1  0.25910000  0.77226000  0.21727000  1.0
  Cu  Cu4  1  0.27970000  0.84241000  0.23236000  1.0
  Cu  Cu5  1  0.92313000  0.53387000  0.25440000  1.0
  Cu  Cu6  1  0.85629000  0.54616000  0.26954000  1.0
  Cu  Cu7  1  0.55325000  0.93945000  0.27416000  1.0
  Cu  Cu8  1  0.56018000  0.87308000  0.28826000  1.0
  Cu  Cu9  1  0.51035000  0.54802000  0.00857000  1.0
  Cu  Cu10  1  0.48573000  0.52792000  0.93773000  1.0
  Cu  Cu11  1  0.21296000  0.51078000  0.82603000  1.0
  Cu  Cu12  1  0.21354000  0.50555000  0.89710000  1.0
  Cu  Cu13  1  0.94145000  0.49061000  0.53712000  1.0
  Cu  Cu14  1  0.86837000  0.47349000  0.52350000  1.0
  Cu  Cu15  1  0.51118000  0.97025000  0.55960000  1.0
  Cu  Cu16  1  0.85140000  0.19275000  0.50031000  1.0
  Cu  Cu17  1  0.78424000  0.18658000  0.52144000  1.0
  Cu  Cu18  1  0.78851000  0.22438000  0.21707000  1.0
  Cu  Cu19  1  0.85865000  0.25303000  0.23825000  1.0
  Cu  Cu20  1  0.54191000  0.25376000  0.87497000  1.0
  Cu  Cu21  1  0.54836000  0.26164000  0.94795000  1.0
  Cu  Cu22  1  0.26518000  0.22860000  0.82915000  1.0
  Cu  Cu23  1  0.24897000  0.20872000  0.75730000  1.0
  H  H24  1  0.42643000  0.85013000  0.53044000  1.0
  H  H25  1  0.40586000  0.78637000  0.53162000  1.0
  H  H26  1  0.44630000  0.75059000  0.56589000  1.0
  H  H27  1  0.50668000  0.77913000  0.59855000  1.0
  H  H28  1  0.52573000  0.84306000  0.59654000  1.0
  H  H29  1  0.15701000  0.92687000  0.52076000  1.0
  H  H30  1  0.24931000  0.75105000  0.46639000  1.0
  H  H31  1  0.26030000  0.69021000  0.47727000  1.0
  H  H32  1  0.23816000  0.66532000  0.53052000  1.0
  H  H33  1  0.20537000  0.70161000  0.57213000  1.0
  H  H34  1  0.19517000  0.76228000  0.55984000  1.0
  H  H35  1  0.80486000  0.50852000  0.54456000  1.0
  H  H36  1  0.09972000  0.53124000  0.56391000  1.0
  H  H37  1  0.05863000  0.56637000  0.59673000  1.0
  H  H38  1  0.99133000  0.54839000  0.58481000  1.0
  H  H39  1  0.21007000  0.62061000  0.18586000  1.0
  H  H40  1  0.17647000  0.66308000  0.15390000  1.0
  H  H41  1  0.19803000  0.72752000  0.16782000  1.0
  H  H42  1  0.34507000  0.88835000  0.27374000  1.0
  H  H43  1  0.24689000  0.90612000  0.21215000  1.0
  H  H44  1  0.28501000  0.70788000  0.24400000  1.0
  H  H45  1  0.26475000  0.64317000  0.23122000  1.0
  H  H46  1  0.02940000  0.53940000  0.18095000  1.0
  H  H47  1  0.96749000  0.54978000  0.19528000  1.0
  H  H48  1  0.70968000  0.57043000  0.29928000  1.0
  H  H49  1  0.73643000  0.59682000  0.24898000  1.0
  H  H50  1  0.79893000  0.58608000  0.23696000  1.0
  H  H51  1  0.53169000  0.82843000  0.34150000  1.0
  H  H52  1  0.53555000  0.76688000  0.35481000  1.0
  H  H53  1  0.57059000  0.72825000  0.31797000  1.0
  H  H54  1  0.60131000  0.75177000  0.26840000  1.0
  H  H55  1  0.59651000  0.81358000  0.25637000  1.0
  H  H56  1  0.56269000  0.58966000  0.16239000  1.0
  H  H57  1  0.59460000  0.61735000  0.11574000  1.0
  H  H58  1  0.57170000  0.59907000  0.05044000  1.0
  H  H59  1  0.49078000  0.52990000  0.80332000  1.0
  H  H60  1  0.51286000  0.54567000  0.86913000  1.0
  H  H61  1  0.48675000  0.52688000  0.07736000  1.0
  H  H62  1  0.50837000  0.54409000  0.14306000  1.0
  H  H63  1  0.18001000  0.56376000  0.71045000  1.0
  H  H64  1  0.18194000  0.55851000  0.77618000  1.0
  H  H65  1  0.17787000  0.53941000  0.95711000  1.0
  H  H66  1  0.44357000  0.83572000  0.88736000  1.0
  H  H67  1  0.44770000  0.88345000  0.85105000  1.0
  H  H68  1  0.60663000  0.90697000  0.98600000  1.0
  H  H69  1  0.15704000  0.80772000  0.84615000  1.0
  H  H70  1  0.15642000  0.85012000  0.80305000  1.0
  H  H71  1  0.32302000  0.88855000  0.92824000  1.0
  H  H72  1  0.32253000  0.93116000  0.88491000  1.0
  H  H73  1  0.91662000  0.59185000  0.91191000  1.0
  H  H74  1  0.87674000  0.59151000  0.95847000  1.0
  H  H75  1  0.88045000  0.89916000  0.60312000  1.0
  H  H76  1  0.91958000  0.85317000  0.59921000  1.0
  H  H77  1  0.76846000  0.81497000  0.45515000  1.0
  H  H78  1  0.80675000  0.76857000  0.45049000  1.0
  H  H79  1  0.99364000  0.92358000  0.31678000  1.0
  H  H80  1  0.84517000  0.87383000  0.17106000  1.0
  H  H81  1  0.88649000  0.82985000  0.16945000  1.0
  H  H82  1  0.37236000  0.89214000  0.60396000  1.0
  H  H83  1  0.32786000  0.84361000  0.55702000  1.0
  H  H84  1  0.35837000  0.93085000  0.50289000  1.0
  H  H85  1  0.32595000  0.83841000  0.47841000  1.0
  H  H86  1  0.31685000  0.88038000  0.46332000  1.0
  H  H87  1  0.38149000  0.80238000  0.18908000  1.0
  H  H88  1  0.40093000  0.77441000  0.28409000  1.0
  H  H89  1  0.44133000  0.82813000  0.32816000  1.0
  H  H90  1  0.40899000  0.86396000  0.22831000  1.0
  H  H91  1  0.44945000  0.89731000  0.32657000  1.0
  H  H92  1  0.43510000  0.91301000  0.28400000  1.0
  H  H93  1  0.37756000  0.76385000  0.21255000  1.0
  H  H94  1  0.90985000  0.58159000  0.38263000  1.0
  H  H95  1  0.99458000  0.53422000  0.37805000  1.0
  H  H96  1  0.88493000  0.51701000  0.39835000  1.0
  H  H97  1  0.95567000  0.58676000  0.37012000  1.0
  H  H98  1  0.46278000  0.94339000  0.44233000  1.0
  H  H99  1  0.51589000  0.86168000  0.44675000  1.0
  H  H100  1  0.57533000  0.87343000  0.41360000  1.0
  H  H101  1  0.45342000  0.89617000  0.44388000  1.0
  H  H102  1  0.31076000  0.82239000  0.34592000  1.0
  H  H103  1  0.26142000  0.73114000  0.34798000  1.0
  H  H104  1  0.20085000  0.73620000  0.37944000  1.0
  H  H105  1  0.24249000  0.83790000  0.35865000  1.0
  H  H106  1  0.15775000  0.78552000  0.38622000  1.0
  H  H107  1  0.17392000  0.82885000  0.37439000  1.0
  H  H108  1  0.31329000  0.77611000  0.33261000  1.0
  H  H109  1  0.36450000  0.55697000  0.92288000  1.0
  H  H110  1  0.38984000  0.53329000  0.01950000  1.0
  H  H111  1  0.38836000  0.57097000  0.99464000  1.0
  H  H112  1  0.22826000  0.92299000  0.44020000  1.0
  H  H113  1  0.80815000  0.52385000  0.32352000  1.0
  H  H114  1  0.74581000  0.53371000  0.33685000  1.0
  H  H115  1  0.06873000  0.50862000  0.22231000  1.0
  H  H116  1  0.20944000  0.52158000  0.67145000  1.0
  H  H117  1  0.18033000  0.53618000  0.02327000  1.0
  H  H118  1  0.61143000  0.93356000  0.39727000  1.0
  H  H119  1  0.36525000  0.95304000  0.28658000  1.0
  H  H120  1  0.33627000  0.52587000  0.85881000  1.0
  H  H121  1  0.73718000  0.49325000  0.53402000  1.0
  H  H122  1  0.43253000  0.48960000  0.78365000  1.0
  H  H123  1  0.42087000  0.48196000  0.89537000  1.0
  H  H124  1  0.98348000  0.49979000  0.29031000  1.0
  H  H125  1  0.04560000  0.48867000  0.27739000  1.0
  H  H126  1  0.22021000  0.49650000  0.05224000  1.0
  H  H127  1  0.32718000  0.47879000  0.85380000  1.0
  H  H128  1  0.35972000  0.47076000  0.98355000  1.0
  H  H129  1  0.00547000  0.46193000  0.50892000  1.0
  H  H130  1  0.07295000  0.47862000  0.51970000  1.0
  H  H131  1  0.39729000  0.46553000  0.83004000  1.0
  H  H132  1  0.25334000  0.46483000  0.94862000  1.0
  H  H133  1  0.25699000  0.46055000  0.01463000  1.0
  H  H134  1  0.24143000  0.47084000  0.76465000  1.0
  H  H135  1  0.24039000  0.47479000  0.69874000  1.0
  H  H136  1  0.98480000  0.47412000  0.40763000  1.0
  H  H137  1  0.88381000  0.44753000  0.40841000  1.0
  H  H138  1  0.32265000  0.44927000  0.91751000  1.0
  H  H139  1  0.70967000  0.43599000  0.49772000  1.0
  H  H140  1  0.81767000  0.41159000  0.48381000  1.0
  H  H141  1  0.82356000  0.43661000  0.82697000  1.0
  H  H142  1  0.78206000  0.43681000  0.87179000  1.0
  H  H143  1  0.90320000  0.41526000  0.22473000  1.0
  H  H144  1  0.89671000  0.43409000  0.30104000  1.0
  H  H145  1  0.84972000  0.44001000  0.30640000  1.0
  H  H146  1  0.92836000  0.43392000  0.42133000  1.0
  H  H147  1  0.55092000  0.42087000  0.02765000  1.0
  H  H148  1  0.48228000  0.43398000  0.02010000  1.0
  H  H149  1  0.45641000  0.42246000  0.97493000  1.0
  H  H150  1  0.75021000  0.39485000  0.47244000  1.0
  H  H151  1  0.80665000  0.38877000  0.27037000  1.0
  H  H152  1  0.49261000  0.39819000  0.92222000  1.0
  H  H153  1  0.16742000  0.39575000  0.81601000  1.0
  H  H154  1  0.25916000  0.39802000  0.88068000  1.0
  H  H155  1  0.17809000  0.39092000  0.86345000  1.0
  H  H156  1  0.91204000  0.37844000  0.57479000  1.0
  H  H157  1  0.94579000  0.37574000  0.54433000  1.0
  H  H158  1  0.54117000  0.37125000  0.88676000  1.0
  H  H159  1  0.58947000  0.38238000  0.98604000  1.0
  H  H160  1  0.58571000  0.37321000  0.91148000  1.0
  H  H161  1  0.91693000  0.35272000  0.47216000  1.0
  H  H162  1  0.84974000  0.33995000  0.55432000  1.0
  H  H163  1  0.86422000  0.35865000  0.18379000  1.0
  H  H164  1  0.29956000  0.35422000  0.84761000  1.0
  H  H165  1  0.20080000  0.35388000  0.77904000  1.0
  H  H166  1  0.96261000  0.34432000  0.30191000  1.0
  H  H167  1  0.60971000  0.95466000  0.94901000  1.0
  H  H168  1  0.89758000  0.31846000  0.28375000  1.0
  H  H169  1  0.01196000  0.31203000  0.28019000  1.0
  H  H170  1  0.52558000  0.31511000  0.07185000  1.0
  H  H171  1  0.86907000  0.31780000  0.87927000  1.0
  H  H172  1  0.90598000  0.31327000  0.83036000  1.0
  H  H173  1  0.77107000  0.34001000  0.22113000  1.0
  H  H174  1  0.78940000  0.33450000  0.17928000  1.0
  H  H175  1  0.29622000  0.32980000  0.77634000  1.0
  H  H176  1  0.25172000  0.32439000  0.74934000  1.0
  H  H177  1  0.51923000  0.30748000  0.00452000  1.0
  H  H178  1  0.34083000  0.29525000  0.94296000  1.0
  H  H179  1  0.85947000  0.30423000  0.44559000  1.0
  H  H180  1  0.79108000  0.30312000  0.51555000  1.0
  H  H181  1  0.56429000  0.27787000  0.10610000  1.0
  H  H182  1  0.49472000  0.28306000  0.81874000  1.0
  H  H183  1  0.48600000  0.27728000  0.75141000  1.0
  H  H184  1  0.32384000  0.27832000  0.87656000  1.0
  H  H185  1  0.79397000  0.29052000  0.46817000  1.0
  H  H186  1  0.82492000  0.27601000  0.34803000  1.0
  H  H187  1  0.42757000  0.27867000  0.91061000  1.0
  H  H188  1  0.39694000  0.96048000  0.60253000  1.0
  H  H189  1  0.95359000  0.96784000  0.31713000  1.0
  H  H190  1  0.39117000  0.97706000  0.55958000  1.0
  H  H191  1  0.52056000  0.96389000  0.41475000  1.0
  H  H192  1  0.55861000  0.12022000  0.55659000  1.0
  H  H193  1  0.59652000  0.08510000  0.59442000  1.0
  H  H194  1  0.57546000  0.02132000  0.59529000  1.0
  H  H195  1  0.48060000  0.02724000  0.52214000  1.0
  H  H196  1  0.50018000  0.09110000  0.52025000  1.0
  H  H197  1  0.99710000  0.20565000  0.45520000  1.0
  H  H198  1  0.98528000  0.17528000  0.50882000  1.0
  H  H199  1  0.92294000  0.17010000  0.52739000  1.0
  H  H200  1  0.71299000  0.20858000  0.49295000  1.0
  H  H201  1  0.65018000  0.20338000  0.51035000  1.0
  H  H202  1  0.63752000  0.17387000  0.56430000  1.0
  H  H203  1  0.68788000  0.15016000  0.60015000  1.0
  H  H204  1  0.75014000  0.15615000  0.58145000  1.0
  H  H205  1  0.88471000  0.22447000  0.44081000  1.0
  H  H206  1  0.94643000  0.23040000  0.42092000  1.0
  H  H207  1  0.17735000  0.01652000  0.46342000  1.0
  H  H208  1  0.14631000  0.98781000  0.51001000  1.0
  H  H209  1  0.21862000  0.98386000  0.42824000  1.0
  H  H210  1  0.32518000  0.99476000  0.26167000  1.0
  H  H211  1  0.26556000  0.97115000  0.22421000  1.0
  H  H212  1  0.54135000  0.08375000  0.24335000  1.0
  H  H213  1  0.57095000  0.04323000  0.20270000  1.0
  H  H214  1  0.57560000  0.98192000  0.21648000  1.0
  H  H215  1  0.52225000  0.00078000  0.30958000  1.0
  H  H216  1  0.51680000  0.06237000  0.29717000  1.0
  H  H217  1  0.63520000  0.16542000  0.17490000  1.0
  H  H218  1  0.68435000  0.13517000  0.14991000  1.0
  H  H219  1  0.74940000  0.16088000  0.16830000  1.0
  H  H220  1  0.99557000  0.25441000  0.24056000  1.0
  H  H221  1  0.93004000  0.22994000  0.22315000  1.0
  H  H222  1  0.71733000  0.24535000  0.23533000  1.0
  H  H223  1  0.65180000  0.22094000  0.21790000  1.0
  H  H224  1  0.52328000  0.23917000  0.71678000  1.0
  H  H225  1  0.56873000  0.20739000  0.74999000  1.0
  H  H226  1  0.57617000  0.21411000  0.81734000  1.0
  H  H227  1  0.59609000  0.23356000  0.07251000  1.0
  H  H228  1  0.58878000  0.22719000  0.00515000  1.0
  H  H229  1  0.30302000  0.26752000  0.98547000  1.0
  H  H230  1  0.24882000  0.22322000  0.96096000  1.0
  H  H231  1  0.23327000  0.20721000  0.89425000  1.0
  H  H232  1  0.27432000  0.23532000  0.69145000  1.0
  H  H233  1  0.25855000  0.21842000  0.62490000  1.0
  H  H234  1  0.21054000  0.16755000  0.60134000  1.0
  H  H235  1  0.17903000  0.13430000  0.64468000  1.0
  H  H236  1  0.19598000  0.15243000  0.71095000  1.0
  H  H237  1  0.90498000  0.15546000  0.91795000  1.0
  H  H238  1  0.94568000  0.15342000  0.87183000  1.0
  H  H239  1  0.58525000  0.97062000  0.39301000  1.0
  H  H240  1  0.77641000  0.26370000  0.33260000  1.0
  H  H241  1  0.85631000  0.20530000  0.33483000  1.0
  H  H242  1  0.84001000  0.15352000  0.37462000  1.0
  H  H243  1  0.75720000  0.22007000  0.37563000  1.0
  H  H244  1  0.77776000  0.12992000  0.39979000  1.0
  H  H245  1  0.74383000  0.16021000  0.40310000  1.0
  H  H246  1  0.37482000  0.24771000  0.77470000  1.0
  H  H247  1  0.38149000  0.16117000  0.81735000  1.0
  H  H248  1  0.41827000  0.17684000  0.88426000  1.0
  H  H249  1  0.40124000  0.27219000  0.84269000  1.0
  H  H250  1  0.42630000  0.23852000  0.93161000  1.0
  H  H251  1  0.36933000  0.20085000  0.76211000  1.0
  C  C252  1  0.43654000  0.94727000  0.56808000  1.0
  C  C253  1  0.56698000  0.92348000  0.55257000  1.0
  C  C254  1  0.48377000  0.92601000  0.49225000  1.0
  C  C255  1  0.44387000  0.83439000  0.54529000  1.0
  C  C256  1  0.43222000  0.79849000  0.54591000  1.0
  C  C257  1  0.45495000  0.77843000  0.56517000  1.0
  C  C258  1  0.48887000  0.79443000  0.58352000  1.0
  C  C259  1  0.49955000  0.83043000  0.58232000  1.0
  C  C260  1  0.19217000  0.81955000  0.42868000  1.0
  C  C261  1  0.21905000  0.86204000  0.56466000  1.0
  C  C262  1  0.27498000  0.85501000  0.48994000  1.0
  C  C263  1  0.13956000  0.82496000  0.50161000  1.0
  C  C264  1  0.23977000  0.74002000  0.48949000  1.0
  C  C265  1  0.24599000  0.70576000  0.49556000  1.0
  C  C266  1  0.23355000  0.69181000  0.52548000  1.0
  C  C267  1  0.21513000  0.71217000  0.54886000  1.0
  C  C268  1  0.20943000  0.74632000  0.54189000  1.0
  C  C269  1  0.89744000  0.54627000  0.52202000  1.0
  C  C270  1  0.07033000  0.52369000  0.55895000  1.0
  C  C271  1  0.04728000  0.54345000  0.57739000  1.0
  C  C272  1  0.00940000  0.53328000  0.57062000  1.0
  C  C273  1  0.28456000  0.80130000  0.29209000  1.0
  C  C274  1  0.25961000  0.81268000  0.15712000  1.0
  C  C275  1  0.26122000  0.69785000  0.22435000  1.0
  C  C276  1  0.24987000  0.66140000  0.21718000  1.0
  C  C277  1  0.21246000  0.70886000  0.18163000  1.0
  C  C278  1  0.20028000  0.67260000  0.17374000  1.0
  C  C279  1  0.21917000  0.64877000  0.19169000  1.0
  C  C280  1  0.33543000  0.79766000  0.21819000  1.0
  C  C281  1  0.20390000  0.81718000  0.23350000  1.0
  C  C282  1  0.32782000  0.90665000  0.26295000  1.0
  C  C283  1  0.27277000  0.91663000  0.22845000  1.0
  C  C284  1  0.90517000  0.60533000  0.25464000  1.0
  C  C285  1  0.98477000  0.53638000  0.21311000  1.0
  C  C286  1  0.01962000  0.53057000  0.20499000  1.0
  C  C287  1  0.91488000  0.55778000  0.32888000  1.0
  C  C288  1  0.86521000  0.52593000  0.19459000  1.0
  C  C289  1  0.79222000  0.53972000  0.30724000  1.0
  C  C290  1  0.75714000  0.54526000  0.31483000  1.0
  C  C291  1  0.73688000  0.56590000  0.29372000  1.0
  C  C292  1  0.75187000  0.58072000  0.26546000  1.0
  C  C293  1  0.78705000  0.57460000  0.25872000  1.0
  C  C294  1  0.57435000  0.92847000  0.34862000  1.0
  C  C295  1  0.54066000  0.88395000  0.21382000  1.0
  C  C296  1  0.48908000  0.89762000  0.29005000  1.0
  C  C297  1  0.62447000  0.91559000  0.27333000  1.0
  C  C298  1  0.54685000  0.81145000  0.32557000  1.0
  C  C299  1  0.54900000  0.77680000  0.33313000  1.0
  C  C300  1  0.56869000  0.75515000  0.31243000  1.0
  C  C301  1  0.58595000  0.76832000  0.28458000  1.0
  C  C302  1  0.58319000  0.80312000  0.27785000  1.0
  C  C303  1  0.50401000  0.60312000  0.96247000  1.0
  C  C304  1  0.51036000  0.54667000  0.08600000  1.0
  C  C305  1  0.52249000  0.55632000  0.12301000  1.0
  C  C306  1  0.55799000  0.58714000  0.07090000  1.0
  C  C307  1  0.57093000  0.59748000  0.10766000  1.0
  C  C308  1  0.55299000  0.58191000  0.13382000  1.0
  C  C309  1  0.43232000  0.54138000  0.98595000  1.0
  C  C310  1  0.56337000  0.53128000  0.96132000  1.0
  C  C311  1  0.44252000  0.49658000  0.81225000  1.0
  C  C312  1  0.47524000  0.51921000  0.82326000  1.0
  C  C313  1  0.48766000  0.52800000  0.86033000  1.0
  C  C314  1  0.22300000  0.57568000  0.87537000  1.0
  C  C315  1  0.19466000  0.54026000  0.75902000  1.0
  C  C316  1  0.19354000  0.54327000  0.72202000  1.0
  C  C317  1  0.49655000  0.85182000  0.92025000  1.0
  C  C318  1  0.46706000  0.85598000  0.89439000  1.0
  C  C319  1  0.46914000  0.88376000  0.87352000  1.0
  C  C320  1  0.50071000  0.90837000  0.87787000  1.0
  C  C321  1  0.52792000  0.90876000  0.90797000  1.0
  C  C322  1  0.52596000  0.88024000  0.92962000  1.0
  C  C323  1  0.55314000  0.88178000  0.96014000  1.0
  C  C324  1  0.58514000  0.90601000  0.96344000  1.0
  C  C325  1  0.21138000  0.82789000  0.87352000  1.0
  C  C326  1  0.17971000  0.82889000  0.84936000  1.0
  C  C327  1  0.17935000  0.85339000  0.82454000  1.0
  C  C328  1  0.21069000  0.87729000  0.82335000  1.0
  C  C329  1  0.23988000  0.88161000  0.85239000  1.0
  C  C330  1  0.24026000  0.85646000  0.87781000  1.0
  C  C331  1  0.26955000  0.86050000  0.90665000  1.0
  C  C332  1  0.30035000  0.88533000  0.90648000  1.0
  C  C333  1  0.30003000  0.90982000  0.88164000  1.0
  C  C334  1  0.26891000  0.91000000  0.85650000  1.0
  C  C335  1  0.83719000  0.51437000  0.90612000  1.0
  C  C336  1  0.86130000  0.51434000  0.87899000  1.0
  C  C337  1  0.89183000  0.54118000  0.88288000  1.0
  C  C338  1  0.89388000  0.57078000  0.90896000  1.0
  C  C339  1  0.87089000  0.57055000  0.93578000  1.0
  C  C340  1  0.84532000  0.54084000  0.93679000  1.0
  C  C341  1  0.84398000  0.87758000  0.55431000  1.0
  C  C342  1  0.87234000  0.87670000  0.58223000  1.0
  C  C343  1  0.89480000  0.85010000  0.57997000  1.0
  C  C344  1  0.88940000  0.82411000  0.54958000  1.0
  C  C345  1  0.85603000  0.81979000  0.52554000  1.0
  C  C346  1  0.83307000  0.84736000  0.52791000  1.0
  C  C347  1  0.80012000  0.84428000  0.50357000  1.0
  C  C348  1  0.79327000  0.81737000  0.47428000  1.0
  C  C349  1  0.81537000  0.79048000  0.47187000  1.0
  C  C350  1  0.84505000  0.78951000  0.49878000  1.0
  C  C351  1  0.91674000  0.94330000  0.26923000  1.0
  C  C352  1  0.94628000  0.94490000  0.29672000  1.0
  C  C353  1  0.96959000  0.91910000  0.29652000  1.0
  C  C354  1  0.96466000  0.89056000  0.26867000  1.0
  C  C355  1  0.93180000  0.88514000  0.24351000  1.0
  C  C356  1  0.90740000  0.91172000  0.24403000  1.0
  C  C357  1  0.87396000  0.90515000  0.21998000  1.0
  C  C358  1  0.86988000  0.87842000  0.19050000  1.0
  C  C359  1  0.89373000  0.85301000  0.18963000  1.0
  C  C360  1  0.92183000  0.85377000  0.21836000  1.0
  C  C361  1  0.31451000  0.86349000  0.48547000  1.0
  C  C362  1  0.39827000  0.95385000  0.57304000  1.0
  C  C363  1  0.36264000  0.89448000  0.57598000  1.0
  C  C364  1  0.33972000  0.86936000  0.55169000  1.0
  C  C365  1  0.35531000  0.91416000  0.52416000  1.0
  C  C366  1  0.44985000  0.89289000  0.29673000  1.0
  C  C367  1  0.37428000  0.79246000  0.21448000  1.0
  C  C368  1  0.40879000  0.80079000  0.27751000  1.0
  C  C369  1  0.42959000  0.82857000  0.30032000  1.0
  C  C370  1  0.41311000  0.84671000  0.24907000  1.0
  C  C371  1  0.92991000  0.56818000  0.36798000  1.0
  C  C372  1  0.96961000  0.52281000  0.38699000  1.0
  C  C373  1  0.91350000  0.51385000  0.39744000  1.0
  C  C374  1  0.47421000  0.91997000  0.45192000  1.0
  C  C375  1  0.52472000  0.88540000  0.43523000  1.0
  C  C376  1  0.55556000  0.89157000  0.41834000  1.0
  C  C377  1  0.52731000  0.93775000  0.41889000  1.0
  C  C378  1  0.18159000  0.80659000  0.38915000  1.0
  C  C379  1  0.29525000  0.79731000  0.33113000  1.0
  C  C380  1  0.24936000  0.75506000  0.35465000  1.0
  C  C381  1  0.21807000  0.75767000  0.37092000  1.0
  C  C382  1  0.23955000  0.80968000  0.36024000  1.0
  C  C383  1  0.39351000  0.54287000  0.99302000  1.0
  C  C384  1  0.35736000  0.53093000  0.93069000  1.0
  C  C385  1  0.50885000  0.92595000  0.84597000  1.0
  C  C386  1  0.22521000  0.88744000  0.67703000  1.0
  C  C387  1  0.22295000  0.87284000  0.60396000  1.0
  C  C388  1  0.22362000  0.89159000  0.71632000  1.0
  C  C389  1  0.21676000  0.88791000  0.78742000  1.0
  C  C390  1  0.25712000  0.82441000  0.04717000  1.0
  C  C391  1  0.25724000  0.81603000  0.11830000  1.0
  C  C392  1  0.25861000  0.83025000  0.00926000  1.0
  C  C393  1  0.26443000  0.84684000  0.94132000  1.0
  C  C394  1  0.83735000  0.52136000  0.08256000  1.0
  C  C395  1  0.85300000  0.52203000  0.15544000  1.0
  C  C396  1  0.83313000  0.52436000  0.04355000  1.0
  C  C397  1  0.83630000  0.53379000  0.97302000  1.0
  C  C398  1  0.53100000  0.85929000  0.10146000  1.0
  C  C399  1  0.53470000  0.87269000  0.17466000  1.0
  C  C400  1  0.53360000  0.85733000  0.06252000  1.0
  C  C401  1  0.54443000  0.86779000  0.99379000  1.0
  C  C402  1  0.88305000  0.65130000  0.50986000  1.0
  C  C403  1  0.89295000  0.58319000  0.51743000  1.0
  C  C404  1  0.87643000  0.68798000  0.50643000  1.0
  C  C405  1  0.85932000  0.75467000  0.50093000  1.0
  C  C406  1  0.67132000  0.89970000  0.53549000  1.0
  C  C407  1  0.60410000  0.91622000  0.54740000  1.0
  C  C408  1  0.70681000  0.88912000  0.52816000  1.0
  C  C409  1  0.76901000  0.86289000  0.51280000  1.0
  C  C410  1  0.83410000  0.91284000  0.54769000  1.0
  C  C411  1  0.02869000  0.80511000  0.51311000  1.0
  C  C412  1  0.10061000  0.81660000  0.50465000  1.0
  C  C413  1  0.99061000  0.80296000  0.52051000  1.0
  C  C414  1  0.92283000  0.81120000  0.53809000  1.0
  C  C415  1  0.92837000  0.71305000  0.24507000  1.0
  C  C416  1  0.91411000  0.64309000  0.25159000  1.0
  C  C417  1  0.93303000  0.75061000  0.23971000  1.0
  C  C418  1  0.93124000  0.81889000  0.22703000  1.0
  C  C419  1  0.73448000  0.92623000  0.25668000  1.0
  C  C420  1  0.66324000  0.92050000  0.26829000  1.0
  C  C421  1  0.77222000  0.92632000  0.24846000  1.0
  C  C422  1  0.83979000  0.91708000  0.23081000  1.0
  C  C423  1  0.09805000  0.83673000  0.25011000  1.0
  C  C424  1  0.16658000  0.82307000  0.23958000  1.0
  C  C425  1  0.06150000  0.84610000  0.25513000  1.0
  C  C426  1  0.99689000  0.87117000  0.26415000  1.0
  C  C427  1  0.60031000  0.52486000  0.95488000  1.0
  C  C428  1  0.99437000  0.52267000  0.85464000  1.0
  C  C429  1  0.92620000  0.53391000  0.86883000  1.0
  C  C430  1  0.50253000  0.70976000  0.94830000  1.0
  C  C431  1  0.50451000  0.64047000  0.95678000  1.0
  C  C432  1  0.50095000  0.74715000  0.94362000  1.0
  C  C433  1  0.49792000  0.81571000  0.93169000  1.0
  C  C434  1  0.26369000  0.94382000  0.84233000  1.0
  C  C435  1  0.22687000  0.68594000  0.89030000  1.0
  C  C436  1  0.22600000  0.61447000  0.88220000  1.0
  C  C437  1  0.22497000  0.72419000  0.89179000  1.0
  C  C438  1  0.21772000  0.79301000  0.88485000  1.0
  C  C439  1  0.17047000  0.93957000  0.50059000  1.0
  C  C440  1  0.33924000  0.94308000  0.27024000  1.0
  C  C441  1  0.28323000  0.95324000  0.23519000  1.0
  C  C442  1  0.66863000  0.51126000  0.94406000  1.0
  C  C443  1  0.70537000  0.50462000  0.93695000  1.0
  C  C444  1  0.51716000  0.94457000  0.62987000  1.0
  C  C445  1  0.04168000  0.51329000  0.22824000  1.0
  C  C446  1  0.14437000  0.51021000  0.85554000  1.0
  C  C447  1  0.19647000  0.52042000  0.00718000  1.0
  C  C448  1  0.19513000  0.52220000  0.96992000  1.0
  C  C449  1  0.58695000  0.93356000  0.94222000  1.0
  C  C450  1  0.55695000  0.93715000  0.91717000  1.0
  C  C451  1  0.58414000  0.94131000  0.38821000  1.0
  C  C452  1  0.52344000  0.94965000  0.74219000  1.0
  C  C453  1  0.52261000  0.94932000  0.66953000  1.0
  C  C454  1  0.52003000  0.94560000  0.78020000  1.0
  C  C455  1  0.03269000  0.51791000  0.85218000  1.0
  C  C456  1  0.10495000  0.51193000  0.85286000  1.0
  C  C457  1  0.21042000  0.93740000  0.45543000  1.0
  C  C458  1  0.99373000  0.50836000  0.26639000  1.0
  C  C459  1  0.21008000  0.51957000  0.70015000  1.0
  C  C460  1  0.28211000  0.50555000  0.86718000  1.0
  C  C461  1  0.32243000  0.50331000  0.87049000  1.0
  C  C462  1  0.79267000  0.48369000  0.52876000  1.0
  C  C463  1  0.90114000  0.49337000  0.59812000  1.0
  C  C464  1  0.43607000  0.49234000  0.87505000  1.0
  C  C465  1  0.42272000  0.48303000  0.83826000  1.0
  C  C466  1  0.35506000  0.48688000  0.96190000  1.0
  C  C467  1  0.89096000  0.49855000  0.70847000  1.0
  C  C468  1  0.89852000  0.49682000  0.63706000  1.0
  C  C469  1  0.88519000  0.49741000  0.74641000  1.0
  C  C470  1  0.86827000  0.49190000  0.81432000  1.0
  C  C471  1  0.01732000  0.48481000  0.52806000  1.0
  C  C472  1  0.05533000  0.49415000  0.53411000  1.0
  C  C473  1  0.02872000  0.50207000  0.25918000  1.0
  C  C474  1  0.22801000  0.49111000  0.75255000  1.0
  C  C475  1  0.22747000  0.49328000  0.71544000  1.0
  C  C476  1  0.23746000  0.48041000  0.96517000  1.0
  C  C477  1  0.21888000  0.49813000  0.02342000  1.0
  C  C478  1  0.85470000  0.48704000  0.84915000  1.0
  C  C479  1  0.80616000  0.48774000  0.90167000  1.0
  C  C480  1  0.96452000  0.49169000  0.40214000  1.0
  C  C481  1  0.77206000  0.49313000  0.91799000  1.0
  C  C482  1  0.75456000  0.47514000  0.52287000  1.0
  C  C483  1  0.73914000  0.44297000  0.50248000  1.0
  C  C484  1  0.90888000  0.46639000  0.46284000  1.0
  C  C485  1  0.87655000  0.47583000  0.27469000  1.0
  C  C486  1  0.48935000  0.47285000  0.98372000  1.0
  C  C487  1  0.23955000  0.47794000  0.00233000  1.0
  C  C488  1  0.82838000  0.45795000  0.84931000  1.0
  C  C489  1  0.80443000  0.45825000  0.87520000  1.0
  C  C490  1  0.91168000  0.45620000  0.42356000  1.0
  C  C491  1  0.33618000  0.47570000  0.92767000  1.0
  C  C492  1  0.91253000  0.41787000  0.53901000  1.0
  C  C493  1  0.79985000  0.42934000  0.49471000  1.0
  C  C494  1  0.76187000  0.41985000  0.48827000  1.0
  C  C495  1  0.20016000  0.44057000  0.84794000  1.0
  C  C496  1  0.87032000  0.43992000  0.28703000  1.0
  C  C497  1  0.48304000  0.43497000  0.99058000  1.0
  C  C498  1  0.54332000  0.41079000  0.99920000  1.0
  C  C499  1  0.87666000  0.40245000  0.22881000  1.0
  C  C500  1  0.82725000  0.38869000  0.25209000  1.0
  C  C501  1  0.56317000  0.39073000  0.97775000  1.0
  C  C502  1  0.51355000  0.39894000  0.94522000  1.0
  C  C503  1  0.18923000  0.40125000  0.83981000  1.0
  C  C504  1  0.91714000  0.38088000  0.54642000  1.0
  C  C505  1  0.85665000  0.37302000  0.20779000  1.0
  C  C506  1  0.55615000  0.36449000  0.91210000  1.0
  C  C507  1  0.25190000  0.38277000  0.85408000  1.0
  C  C508  1  0.27263000  0.35983000  0.83715000  1.0
  C  C509  1  0.22211000  0.35994000  0.80212000  1.0
  C  C510  1  0.89480000  0.34334000  0.48656000  1.0
  C  C511  1  0.95581000  0.31919000  0.28469000  1.0
  C  C512  1  0.55085000  0.32505000  0.91222000  1.0
  C  C513  1  0.86520000  0.31815000  0.47289000  1.0
  C  C514  1  0.86036000  0.33657000  0.52855000  1.0
  C  C515  1  0.79645000  0.33544000  0.20913000  1.0
  C  C516  1  0.26641000  0.32203000  0.77652000  1.0
  C  C517  1  0.80690000  0.30011000  0.21714000  1.0
  C  C518  1  0.91921000  0.30457000  0.27443000  1.0
  C  C519  1  0.98349000  0.30104000  0.27247000  1.0
  C  C520  1  0.53953000  0.29571000  0.05753000  1.0
  C  C521  1  0.88338000  0.29480000  0.87561000  1.0
  C  C522  1  0.53599000  0.29136000  0.01962000  1.0
  C  C523  1  0.26125000  0.28407000  0.78355000  1.0
  C  C524  1  0.31716000  0.27595000  0.93261000  1.0
  C  C525  1  0.90481000  0.29227000  0.84748000  1.0
  C  C526  1  0.80849000  0.29175000  0.49614000  1.0
  C  C527  1  0.90032000  0.97680000  0.26520000  1.0
  C  C528  1  0.50593000  0.04012000  0.53794000  1.0
  C  C529  1  0.51692000  0.07608000  0.53681000  1.0
  C  C530  1  0.55912000  0.03681000  0.57894000  1.0
  C  C531  1  0.57103000  0.07271000  0.57849000  1.0
  C  C532  1  0.54973000  0.09240000  0.55724000  1.0
  C  C533  1  0.81298000  0.25450000  0.50285000  1.0
  C  C534  1  0.82086000  0.12458000  0.51904000  1.0
  C  C535  1  0.90689000  0.21378000  0.45558000  1.0
  C  C536  1  0.94163000  0.21714000  0.44432000  1.0
  C  C537  1  0.92833000  0.18329000  0.50411000  1.0
  C  C538  1  0.96345000  0.18617000  0.49370000  1.0
  C  C539  1  0.97005000  0.20323000  0.46359000  1.0
  C  C540  1  0.79014000  0.17015000  0.44485000  1.0
  C  C541  1  0.84696000  0.20701000  0.57671000  1.0
  C  C542  1  0.70728000  0.19589000  0.51645000  1.0
  C  C543  1  0.67188000  0.19297000  0.52618000  1.0
  C  C544  1  0.66481000  0.17640000  0.55648000  1.0
  C  C545  1  0.69307000  0.16307000  0.57663000  1.0
  C  C546  1  0.72812000  0.16651000  0.56606000  1.0
  C  C547  1  0.20500000  0.97167000  0.44863000  1.0
  C  C548  1  0.16438000  0.97388000  0.49457000  1.0
  C  C549  1  0.18182000  0.98997000  0.46839000  1.0
  C  C550  1  0.31671000  0.96647000  0.25623000  1.0
  C  C551  1  0.53288000  0.01030000  0.28624000  1.0
  C  C552  1  0.52977000  0.04498000  0.27930000  1.0
  C  C553  1  0.56279000  0.99972000  0.23405000  1.0
  C  C554  1  0.56019000  0.03423000  0.22622000  1.0
  C  C555  1  0.54356000  0.05696000  0.24906000  1.0
  C  C556  1  0.84018000  0.17706000  0.23699000  1.0
  C  C557  1  0.70987000  0.22121000  0.21665000  1.0
  C  C558  1  0.67295000  0.20752000  0.20687000  1.0
  C  C559  1  0.72786000  0.17386000  0.17908000  1.0
  C  C560  1  0.69125000  0.15934000  0.16867000  1.0
  C  C561  1  0.66367000  0.17635000  0.18271000  1.0
  C  C562  1  0.81129000  0.24957000  0.29341000  1.0
  C  C563  1  0.83565000  0.22955000  0.16171000  1.0
  C  C564  1  0.97432000  0.26868000  0.25021000  1.0
  C  C565  1  0.93741000  0.25493000  0.24049000  1.0
  C  C566  1  0.54205000  0.19033000  0.90882000  1.0
  C  C567  1  0.51083000  0.26654000  0.80348000  1.0
  C  C568  1  0.50587000  0.26332000  0.76556000  1.0
  C  C569  1  0.55652000  0.22792000  0.80271000  1.0
  C  C570  1  0.55236000  0.22406000  0.76477000  1.0
  C  C571  1  0.52682000  0.24192000  0.74615000  1.0
  C  C572  1  0.47564000  0.25333000  0.90956000  1.0
  C  C573  1  0.61464000  0.26049000  0.91491000  1.0
  C  C574  1  0.56128000  0.27479000  0.07673000  1.0
  C  C575  1  0.57914000  0.24989000  0.05790000  1.0
  C  C576  1  0.57495000  0.24632000  0.01997000  1.0
  C  C577  1  0.25551000  0.15351000  0.80281000  1.0
  C  C578  1  0.30754000  0.26636000  0.89522000  1.0
  C  C579  1  0.25675000  0.22652000  0.90515000  1.0
  C  C580  1  0.26547000  0.23548000  0.94271000  1.0
  C  C581  1  0.29591000  0.26035000  0.95645000  1.0
  C  C582  1  0.32515000  0.22057000  0.78706000  1.0
  C  C583  1  0.18915000  0.21734000  0.79914000  1.0
  C  C584  1  0.25343000  0.21326000  0.68098000  1.0
  C  C585  1  0.24461000  0.20378000  0.64349000  1.0
  C  C586  1  0.21765000  0.17520000  0.63030000  1.0
  C  C587  1  0.19993000  0.15652000  0.65461000  1.0
  C  C588  1  0.20951000  0.16679000  0.69191000  1.0
  C  C589  1  0.87462000  0.26533000  0.89352000  1.0
  C  C590  1  0.91815000  0.26038000  0.83731000  1.0
  C  C591  1  0.91751000  0.23404000  0.86113000  1.0
  C  C592  1  0.89453000  0.23591000  0.88905000  1.0
  C  C593  1  0.89145000  0.20786000  0.91082000  1.0
  C  C594  1  0.90736000  0.17717000  0.90178000  1.0
  C  C595  1  0.93063000  0.17593000  0.87520000  1.0
  C  C596  1  0.93806000  0.20516000  0.85668000  1.0
  C  C597  1  0.77370000  0.15810000  0.40629000  1.0
  C  C598  1  0.80404000  0.25514000  0.33202000  1.0
  C  C599  1  0.83216000  0.20124000  0.34833000  1.0
  C  C600  1  0.82378000  0.17448000  0.36893000  1.0
  C  C601  1  0.78142000  0.20862000  0.36925000  1.0
  C  C602  1  0.43486000  0.25124000  0.90813000  1.0
  C  C603  1  0.36514000  0.22194000  0.78361000  1.0
  C  C604  1  0.39131000  0.18739000  0.83149000  1.0
  C  C605  1  0.41013000  0.19549000  0.86613000  1.0
  C  C606  1  0.40150000  0.24422000  0.84463000  1.0
  C  C607  1  0.89192000  0.22660000  0.68591000  1.0
  C  C608  1  0.86309000  0.21420000  0.61485000  1.0
  C  C609  1  0.90552000  0.23404000  0.72474000  1.0
  C  C610  1  0.91948000  0.25022000  0.79808000  1.0
  C  C611  1  0.85449000  0.22139000  0.05338000  1.0
  C  C612  1  0.84250000  0.22611000  0.12381000  1.0
  C  C613  1  0.86166000  0.21869000  0.01555000  1.0
  C  C614  1  0.87860000  0.21249000  0.94670000  1.0
  C  C615  1  0.82446000  0.01804000  0.53239000  1.0
  C  C616  1  0.82255000  0.08730000  0.52390000  1.0
  C  C617  1  0.82624000  0.98076000  0.53737000  1.0
  C  C618  1  0.86776000  0.07631000  0.25190000  1.0
  C  C619  1  0.84987000  0.14172000  0.24228000  1.0
  C  C620  1  0.87810000  0.04108000  0.25673000  1.0
  C  C621  1  0.72731000  0.25834000  0.91761000  1.0
  C  C622  1  0.65418000  0.25993000  0.91622000  1.0
  C  C623  1  0.76672000  0.25846000  0.91663000  1.0
  C  C624  1  0.83818000  0.26158000  0.90605000  1.0
  C  C625  1  0.25693000  0.04733000  0.81899000  1.0
  C  C626  1  0.25569000  0.11620000  0.80839000  1.0
  C  C627  1  0.25844000  0.01039000  0.82555000  1.0
  C  C628  1  0.07856000  0.21519000  0.81216000  1.0
  C  C629  1  0.15022000  0.21691000  0.80287000  1.0
  C  C630  1  0.04036000  0.21335000  0.81925000  1.0
  C  C631  1  0.97235000  0.20857000  0.83999000  1.0
  C  C632  1  0.54440000  0.08110000  0.90562000  1.0
  C  C633  1  0.54239000  0.15194000  0.90762000  1.0
  C  C634  1  0.54628000  0.04298000  0.90536000  1.0
  C  C635  1  0.55191000  0.97345000  0.90955000  1.0
  N  N636  1  0.47706000  0.84962000  0.56336000  1.0
  N  N637  1  0.19324000  0.92210000  0.48112000  1.0
  N  N638  1  0.22174000  0.75954000  0.51257000  1.0
  N  N639  1  0.99520000  0.50441000  0.54623000  1.0
  N  N640  1  0.24244000  0.72076000  0.20663000  1.0
  N  N641  1  0.29506000  0.89416000  0.24233000  1.0
  N  N642  1  0.97253000  0.52526000  0.24341000  1.0
  N  N643  1  0.80642000  0.55429000  0.27950000  1.0
  N  N644  1  0.56379000  0.82388000  0.29825000  1.0
  N  N645  1  0.52817000  0.56213000  0.06080000  1.0
  N  N646  1  0.46804000  0.51450000  0.88537000  1.0
  N  N647  1  0.37207000  0.92249000  0.55859000  1.0
  N  N648  1  0.33508000  0.88199000  0.51940000  1.0
  N  N649  1  0.39885000  0.81227000  0.24543000  1.0
  N  N650  1  0.43217000  0.85716000  0.28230000  1.0
  N  N651  1  0.93767000  0.53664000  0.38448000  1.0
  N  N652  1  0.50715000  0.91435000  0.43531000  1.0
  N  N653  1  0.55693000  0.92435000  0.40819000  1.0
  N  N654  1  0.26270000  0.78772000  0.34825000  1.0
  N  N655  1  0.21216000  0.79190000  0.37431000  1.0
  N  N656  1  0.36821000  0.52145000  0.96354000  1.0
  N  N657  1  0.54216000  0.92737000  0.68757000  1.0
  N  N658  1  0.54288000  0.92781000  0.72331000  1.0
  N  N659  1  0.54088000  0.92207000  0.83259000  1.0
  N  N660  1  0.20231000  0.90269000  0.65418000  1.0
  N  N661  1  0.20143000  0.89574000  0.61827000  1.0
  N  N662  1  0.24593000  0.85775000  0.62681000  1.0
  N  N663  1  0.24723000  0.86512000  0.66267000  1.0
  N  N664  1  0.25165000  0.88336000  0.73928000  1.0
  N  N665  1  0.24831000  0.88165000  0.77413000  1.0
  N  N666  1  0.18889000  0.89678000  0.76456000  1.0
  N  N667  1  0.19239000  0.89889000  0.72971000  1.0
  N  N668  1  0.86619000  0.51143000  0.68536000  1.0
  N  N669  1  0.86970000  0.51028000  0.65020000  1.0
  N  N670  1  0.85858000  0.51908000  0.79651000  1.0
  N  N671  1  0.86668000  0.52167000  0.76307000  1.0
  N  N672  1  0.24382000  0.84832000  0.07014000  1.0
  N  N673  1  0.24421000  0.84441000  0.10515000  1.0
  N  N674  1  0.27006000  0.79182000  0.09524000  1.0
  N  N675  1  0.27031000  0.79608000  0.06034000  1.0
  N  N676  1  0.28651000  0.82041000  0.99146000  1.0
  N  N677  1  0.28962000  0.82890000  0.95819000  1.0
  N  N678  1  0.23628000  0.85611000  0.95895000  1.0
  N  N679  1  0.23353000  0.84816000  0.99235000  1.0
  N  N680  1  0.82901000  0.54293000  0.14163000  1.0
  N  N681  1  0.82153000  0.54281000  0.10582000  1.0
  N  N682  1  0.82592000  0.55531000  0.03147000  1.0
  N  N683  1  0.82779000  0.56006000  0.99691000  1.0
  N  N684  1  0.55326000  0.84260000  0.12347000  1.0
  N  N685  1  0.55483000  0.84896000  0.15948000  1.0
  N  N686  1  0.51215000  0.88902000  0.15265000  1.0
  N  N687  1  0.51014000  0.88225000  0.11670000  1.0
  N  N688  1  0.50706000  0.86846000  0.03996000  1.0
  N  N689  1  0.51231000  0.87343000  0.00618000  1.0
  N  N690  1  0.57067000  0.85582000  0.01609000  1.0
  N  N691  1  0.56523000  0.85044000  0.04978000  1.0
  N  N692  1  0.90961000  0.64403000  0.53524000  1.0
  N  N693  1  0.91470000  0.61058000  0.53873000  1.0
  N  N694  1  0.86629000  0.59048000  0.49223000  1.0
  N  N695  1  0.86162000  0.62390000  0.48832000  1.0
  N  N696  1  0.86077000  0.69646000  0.47442000  1.0
  N  N697  1  0.85255000  0.72910000  0.47172000  1.0
  N  N698  1  0.87477000  0.74591000  0.53304000  1.0
  N  N699  1  0.88359000  0.71341000  0.53566000  1.0
  N  N700  1  0.65168000  0.88216000  0.55793000  1.0
  N  N701  1  0.61856000  0.89004000  0.56352000  1.0
  N  N702  1  0.62387000  0.93417000  0.52527000  1.0
  N  N703  1  0.65681000  0.92583000  0.51916000  1.0
  N  N704  1  0.71887000  0.89204000  0.49553000  1.0
  N  N705  1  0.74929000  0.87885000  0.48783000  1.0
  N  N706  1  0.75719000  0.86054000  0.54556000  1.0
  N  N707  1  0.72660000  0.87324000  0.55303000  1.0
  N  N708  1  0.83942000  0.92474000  0.51558000  1.0
  N  N709  1  0.04000000  0.82585000  0.48836000  1.0
  N  N710  1  0.07533000  0.83165000  0.48435000  1.0
  N  N711  1  0.08930000  0.79527000  0.52894000  1.0
  N  N712  1  0.05396000  0.78990000  0.53336000  1.0
  N  N713  1  0.98213000  0.79771000  0.55404000  1.0
  N  N714  1  0.94893000  0.80205000  0.56277000  1.0
  N  N715  1  0.93103000  0.81526000  0.50422000  1.0
  N  N716  1  0.96432000  0.81134000  0.49564000  1.0
  N  N717  1  0.90684000  0.70197000  0.26965000  1.0
  N  N718  1  0.89967000  0.66763000  0.27270000  1.0
  N  N719  1  0.93612000  0.65413000  0.22733000  1.0
  N  N720  1  0.94283000  0.68850000  0.22386000  1.0
  N  N721  1  0.93873000  0.76040000  0.20680000  1.0
  N  N722  1  0.93748000  0.79386000  0.20047000  1.0
  N  N723  1  0.92659000  0.80920000  0.26021000  1.0
  N  N724  1  0.92734000  0.77570000  0.26639000  1.0
  N  N725  1  0.71007000  0.94299000  0.23714000  1.0
  N  N726  1  0.67511000  0.94044000  0.24310000  1.0
  N  N727  1  0.68765000  0.90378000  0.28779000  1.0
  N  N728  1  0.72266000  0.90679000  0.28225000  1.0
  N  N729  1  0.79859000  0.91840000  0.27355000  1.0
  N  N730  1  0.83177000  0.91401000  0.26493000  1.0
  N  N731  1  0.81351000  0.92541000  0.20577000  1.0
  N  N732  1  0.78042000  0.93027000  0.21455000  1.0
  N  N733  1  0.12781000  0.85350000  0.27287000  1.0
  N  N734  1  0.16144000  0.84702000  0.26753000  1.0
  N  N735  1  0.13682000  0.80585000  0.21701000  1.0
  N  N736  1  0.10313000  0.81283000  0.22198000  1.0
  N  N737  1  0.03533000  0.84536000  0.22624000  1.0
  N  N738  1  0.00383000  0.85801000  0.23063000  1.0
  N  N739  1  0.02299000  0.87121000  0.29298000  1.0
  N  N740  1  0.05465000  0.85911000  0.28857000  1.0
  N  N741  1  0.66388000  0.53842000  0.96899000  1.0
  N  N742  1  0.63026000  0.54484000  0.97462000  1.0
  N  N743  1  0.76541000  0.52622000  0.93042000  1.0
  N  N744  1  0.73292000  0.53182000  0.94019000  1.0
  N  N745  1  0.08880000  0.53406000  0.83187000  1.0
  N  N746  1  0.05329000  0.53725000  0.83178000  1.0
  N  N747  1  0.98178000  0.55390000  0.84936000  1.0
  N  N748  1  0.94835000  0.55955000  0.85663000  1.0
  N  N749  1  0.52762000  0.70029000  0.97375000  1.0
  N  N750  1  0.52833000  0.66627000  0.97818000  1.0
  N  N751  1  0.47976000  0.64995000  0.93106000  1.0
  N  N752  1  0.47863000  0.68396000  0.92707000  1.0
  N  N753  1  0.46861000  0.75809000  0.93176000  1.0
  N  N754  1  0.46713000  0.79164000  0.92606000  1.0
  N  N755  1  0.53035000  0.80445000  0.94320000  1.0
  N  N756  1  0.53180000  0.77102000  0.94956000  1.0
  N  N757  1  0.24644000  0.66988000  0.86623000  1.0
  N  N758  1  0.24577000  0.63479000  0.86204000  1.0
  N  N759  1  0.20690000  0.63053000  0.90676000  1.0
  N  N760  1  0.20707000  0.66562000  0.91052000  1.0
  N  N761  1  0.19445000  0.73807000  0.90033000  1.0
  N  N762  1  0.19072000  0.77178000  0.89658000  1.0
  N  N763  1  0.24855000  0.77925000  0.87721000  1.0
  N  N764  1  0.25205000  0.74551000  0.88048000  1.0
  N  N765  1  0.82461000  0.93553000  0.57459000  1.0
  N  N766  1  0.60508000  0.49791000  0.92977000  1.0
  N  N767  1  0.54629000  0.93154000  0.80027000  1.0
  N  N768  1  0.48270000  0.94050000  0.82612000  1.0
  N  N769  1  0.48831000  0.95042000  0.79392000  1.0
  N  N770  1  0.93870000  0.50255000  0.87341000  1.0
  N  N771  1  0.21172000  0.51443000  0.77352000  1.0
  N  N772  1  0.21553000  0.50237000  0.94975000  1.0
  N  N773  1  0.33803000  0.50334000  0.90828000  1.0
  N  N774  1  0.84253000  0.50253000  0.98494000  1.0
  N  N775  1  0.63866000  0.49110000  0.92460000  1.0
  N  N776  1  0.92363000  0.48444000  0.66026000  1.0
  N  N777  1  0.91976000  0.48500000  0.69532000  1.0
  N  N778  1  0.04880000  0.49542000  0.87262000  1.0
  N  N779  1  0.97213000  0.49706000  0.86655000  1.0
  N  N780  1  0.92937000  0.48632000  0.40859000  1.0
  N  N781  1  0.86067000  0.49989000  0.09639000  1.0
  N  N782  1  0.86858000  0.50041000  0.13217000  1.0
  N  N783  1  0.84116000  0.49796000  0.01958000  1.0
  N  N784  1  0.08433000  0.49268000  0.87318000  1.0
  N  N785  1  0.81447000  0.46083000  0.51468000  1.0
  N  N786  1  0.89545000  0.47049000  0.76442000  1.0
  N  N787  1  0.88680000  0.46756000  0.79769000  1.0
  N  N788  1  0.71169000  0.47155000  0.92442000  1.0
  N  N789  1  0.74440000  0.46592000  0.91528000  1.0
  N  N790  1  0.85789000  0.41232000  0.25627000  1.0
  N  N791  1  0.51240000  0.41593000  0.97863000  1.0
  N  N792  1  0.22048000  0.38296000  0.83182000  1.0
  N  N793  1  0.89160000  0.35466000  0.52139000  1.0
  N  N794  1  0.82580000  0.36458000  0.22258000  1.0
  N  N795  1  0.54436000  0.38343000  0.94403000  1.0
  N  N796  1  0.25369000  0.34549000  0.80474000  1.0
  N  N797  1  0.84390000  0.31395000  0.49938000  1.0
  N  N798  1  0.71420000  0.27771000  0.94476000  1.0
  N  N799  1  0.67817000  0.27818000  0.94428000  1.0
  N  N800  1  0.82618000  0.28894000  0.92574000  1.0
  N  N801  1  0.79110000  0.28726000  0.93124000  1.0
  N  N802  1  0.23585000  0.96142000  0.85207000  1.0
  N  N803  1  0.28887000  0.96007000  0.82388000  1.0
  N  N804  1  0.23336000  0.99412000  0.84400000  1.0
  N  N805  1  0.52706000  0.02127000  0.55880000  1.0
  N  N806  1  0.90090000  0.19706000  0.48504000  1.0
  N  N807  1  0.73455000  0.18270000  0.53637000  1.0
  N  N808  1  0.54923000  0.98846000  0.26370000  1.0
  N  N809  1  0.73646000  0.20428000  0.20272000  1.0
  N  N810  1  0.91072000  0.27295000  0.25271000  1.0
  N  N811  1  0.53586000  0.24892000  0.82125000  1.0
  N  N812  1  0.55360000  0.26693000  0.00164000  1.0
  N  N813  1  0.27778000  0.24198000  0.88225000  1.0
  N  N814  1  0.23583000  0.19479000  0.70434000  1.0
  N  N815  1  0.80527000  0.22223000  0.34825000  1.0
  N  N816  1  0.79204000  0.17934000  0.38195000  1.0
  N  N817  1  0.38630000  0.21802000  0.81816000  1.0
  N  N818  1  0.41638000  0.23106000  0.87408000  1.0
  N  N819  1  0.50397000  0.97177000  0.72418000  1.0
  N  N820  1  0.50381000  0.97180000  0.68847000  1.0
  N  N821  1  0.90863000  0.24311000  0.66077000  1.0
  N  N822  1  0.89466000  0.23668000  0.62571000  1.0
  N  N823  1  0.84639000  0.19797000  0.64004000  1.0
  N  N824  1  0.86066000  0.20388000  0.67485000  1.0
  N  N825  1  0.89673000  0.20950000  0.74677000  1.0
  N  N826  1  0.90365000  0.21740000  0.78264000  1.0
  N  N827  1  0.92898000  0.27470000  0.77598000  1.0
  N  N828  1  0.92240000  0.26665000  0.73990000  1.0
  N  N829  1  0.82562000  0.20122000  0.06327000  1.0
  N  N830  1  0.81955000  0.20375000  0.09787000  1.0
  N  N831  1  0.87148000  0.24607000  0.11393000  1.0
  N  N832  1  0.87728000  0.24386000  0.07933000  1.0
  N  N833  1  0.88423000  0.24461000  0.00445000  1.0
  N  N834  1  0.89248000  0.24161000  0.97065000  1.0
  N  N835  1  0.85600000  0.18649000  0.95777000  1.0
  N  N836  1  0.84741000  0.18968000  0.99154000  1.0
  N  N837  1  0.84431000  0.03347000  0.50867000  1.0
  N  N838  1  0.84357000  0.06754000  0.50465000  1.0
  N  N839  1  0.80249000  0.07181000  0.54742000  1.0
  N  N840  1  0.80368000  0.03789000  0.55185000  1.0
  N  N841  1  0.82033000  0.96879000  0.56935000  1.0
  N  N842  1  0.83568000  0.95807000  0.51054000  1.0
  N  N843  1  0.84044000  0.08030000  0.22564000  1.0
  N  N844  1  0.83143000  0.11240000  0.22114000  1.0
  N  N845  1  0.87735000  0.13776000  0.26835000  1.0
  N  N846  1  0.88595000  0.10562000  0.27325000  1.0
  N  N847  1  0.89395000  0.03458000  0.28951000  1.0
  N  N848  1  0.90469000  0.00310000  0.29366000  1.0
  N  N849  1  0.88481000  0.98363000  0.23230000  1.0
  N  N850  1  0.87346000  0.01493000  0.22823000  1.0
  N  N851  1  0.66736000  0.24079000  0.88907000  1.0
  N  N852  1  0.70323000  0.23984000  0.88987000  1.0
  N  N853  1  0.77884000  0.23107000  0.89732000  1.0
  N  N854  1  0.81388000  0.23256000  0.89223000  1.0
  N  N855  1  0.27019000  0.05968000  0.78981000  1.0
  N  N856  1  0.26925000  0.09342000  0.78443000  1.0
  N  N857  1  0.24269000  0.10392000  0.83771000  1.0
  N  N858  1  0.24303000  0.07003000  0.84274000  1.0
  N  N859  1  0.28602000  0.99262000  0.81525000  1.0
  N  N860  1  0.10451000  0.23938000  0.83297000  1.0
  N  N861  1  0.13970000  0.24008000  0.82857000  1.0
  N  N862  1  0.12427000  0.19295000  0.78165000  1.0
  N  N863  1  0.08904000  0.19189000  0.78643000  1.0
  N  N864  1  0.01709000  0.18259000  0.81100000  1.0
  N  N865  1  0.98376000  0.18015000  0.82146000  1.0
  N  N866  1  0.99546000  0.23944000  0.84752000  1.0
  N  N867  1  0.02883000  0.24175000  0.83747000  1.0
  N  N868  1  0.52906000  0.09917000  0.93207000  1.0
  N  N869  1  0.52835000  0.13402000  0.93324000  1.0
  N  N870  1  0.55739000  0.13381000  0.88096000  1.0
  N  N871  1  0.55869000  0.09908000  0.88016000  1.0
  N  N872  1  0.57480000  0.02800000  0.89310000  1.0
  N  N873  1  0.57782000  0.99393000  0.89557000  1.0
  N  N874  1  0.52316000  0.98835000  0.92122000  1.0
  N  N875  1  0.52047000  0.02248000  0.91933000  1.0
  O  O876  1  0.44584000  0.91536000  0.56944000  1.0
  O  O877  1  0.54272000  0.89718000  0.55704000  1.0
  O  O878  1  0.48141000  0.89881000  0.51062000  1.0
  O  O879  1  0.50805000  0.91234000  0.61300000  1.0
  O  O880  1  0.19312000  0.85331000  0.44008000  1.0
  O  O881  1  0.19902000  0.79680000  0.45159000  1.0
  O  O882  1  0.22543000  0.83014000  0.55261000  1.0
  O  O883  1  0.20700000  0.88329000  0.54215000  1.0
  O  O884  1  0.26247000  0.82286000  0.49526000  1.0
  O  O885  1  0.25337000  0.87976000  0.48833000  1.0
  O  O886  1  0.15107000  0.85522000  0.49081000  1.0
  O  O887  1  0.16248000  0.80262000  0.51014000  1.0
  O  O888  1  0.92966000  0.53811000  0.53425000  1.0
  O  O889  1  0.86893000  0.52178000  0.51398000  1.0
  O  O890  1  0.26973000  0.77344000  0.26914000  1.0
  O  O891  1  0.29150000  0.83239000  0.28109000  1.0
  O  O892  1  0.26575000  0.84134000  0.18090000  1.0
  O  O893  1  0.25783000  0.78113000  0.16772000  1.0
  O  O894  1  0.32691000  0.82996000  0.22372000  1.0
  O  O895  1  0.31041000  0.76999000  0.21571000  1.0
  O  O896  1  0.21071000  0.78578000  0.22023000  1.0
  O  O897  1  0.23035000  0.84365000  0.24216000  1.0
  O  O898  1  0.87443000  0.59455000  0.26661000  1.0
  O  O899  1  0.92798000  0.58292000  0.24605000  1.0
  O  O900  1  0.87960000  0.55661000  0.31872000  1.0
  O  O901  1  0.93719000  0.54978000  0.30532000  1.0
  O  O902  1  0.84423000  0.53842000  0.21751000  1.0
  O  O903  1  0.57160000  0.89444000  0.33760000  1.0
  O  O904  1  0.55182000  0.86224000  0.23623000  1.0
  O  O905  1  0.53757000  0.91685000  0.22564000  1.0
  O  O906  1  0.50863000  0.87126000  0.29208000  1.0
  O  O907  1  0.50381000  0.92868000  0.28361000  1.0
  O  O908  1  0.60362000  0.93994000  0.26569000  1.0
  O  O909  1  0.61097000  0.88641000  0.28494000  1.0
  O  O910  1  0.49154000  0.57818000  0.93535000  1.0
  O  O911  1  0.51393000  0.59511000  0.99507000  1.0
  O  O912  1  0.43887000  0.53170000  0.95283000  1.0
  O  O913  1  0.45924000  0.54970000  0.01280000  1.0
  O  O914  1  0.55758000  0.54347000  0.99403000  1.0
  O  O915  1  0.53626000  0.52302000  0.93468000  1.0
  O  O916  1  0.21631000  0.55648000  0.90135000  1.0
  O  O917  1  0.22514000  0.56057000  0.84254000  1.0
  O  O918  1  0.89854000  0.52006000  0.20595000  1.0
  O  O919  1  0.55834000  0.95575000  0.55253000  1.0
  O  O920  1  0.16208000  0.51605000  0.82795000  1.0
  O  O921  1  0.56822000  0.95120000  0.32556000  1.0
  O  O922  1  0.26529000  0.50659000  0.89617000  1.0
  O  O923  1  0.26401000  0.50609000  0.83500000  1.0
  O  O924  1  0.16157000  0.50327000  0.88612000  1.0
  O  O925  1  0.87100000  0.48776000  0.57485000  1.0
  O  O926  1  0.93340000  0.49369000  0.58699000  1.0
  O  O927  1  0.50301000  0.49760000  0.01074000  1.0
  O  O928  1  0.47987000  0.48093000  0.95105000  1.0
  O  O929  1  0.93854000  0.47955000  0.48527000  1.0
  O  O930  1  0.90899000  0.48744000  0.26682000  1.0
  O  O931  1  0.85074000  0.49656000  0.27555000  1.0
  O  O932  1  0.87693000  0.46126000  0.47449000  1.0
  O  O933  1  0.20109000  0.45992000  0.82113000  1.0
  O  O934  1  0.20586000  0.45543000  0.88184000  1.0
  O  O935  1  0.87954000  0.42722000  0.53321000  1.0
  O  O936  1  0.94183000  0.44108000  0.54061000  1.0
  O  O937  1  0.84088000  0.29686000  0.22939000  1.0
  O  O938  1  0.54764000  0.30455000  0.88116000  1.0
  O  O939  1  0.55154000  0.31142000  0.94295000  1.0
  O  O940  1  0.26922000  0.27601000  0.81651000  1.0
  O  O941  1  0.49560000  0.95813000  0.50850000  1.0
  O  O942  1  0.46053000  0.97373000  0.56329000  1.0
  O  O943  1  0.51877000  0.97209000  0.61187000  1.0
  O  O944  1  0.84198000  0.24036000  0.49441000  1.0
  O  O945  1  0.78641000  0.23575000  0.51524000  1.0
  O  O946  1  0.79169000  0.13883000  0.52644000  1.0
  O  O947  1  0.84824000  0.14321000  0.50749000  1.0
  O  O948  1  0.76874000  0.17227000  0.47037000  1.0
  O  O949  1  0.82581000  0.17771000  0.45271000  1.0
  O  O950  1  0.86814000  0.20721000  0.55101000  1.0
  O  O951  1  0.81135000  0.19842000  0.56899000  1.0
  O  O952  1  0.78163000  0.27238000  0.21042000  1.0
  O  O953  1  0.86516000  0.20494000  0.24563000  1.0
  O  O954  1  0.80660000  0.18030000  0.22355000  1.0
  O  O955  1  0.84393000  0.26030000  0.28550000  1.0
  O  O956  1  0.78518000  0.23338000  0.26820000  1.0
  O  O957  1  0.80288000  0.21900000  0.16946000  1.0
  O  O958  1  0.86211000  0.24432000  0.18726000  1.0
  O  O959  1  0.54389000  0.21030000  0.94017000  1.0
  O  O960  1  0.54129000  0.20436000  0.87842000  1.0
  O  O961  1  0.49610000  0.25884000  0.94122000  1.0
  O  O962  1  0.49044000  0.25027000  0.87934000  1.0
  O  O963  1  0.59416000  0.25544000  0.88318000  1.0
  O  O964  1  0.60005000  0.26450000  0.94516000  1.0
  O  O965  1  0.25149000  0.25909000  0.75588000  1.0
  O  O966  1  0.25309000  0.16198000  0.76969000  1.0
  O  O967  1  0.25843000  0.17805000  0.83091000  1.0
  O  O968  1  0.30110000  0.21336000  0.75769000  1.0
  O  O969  1  0.31462000  0.22689000  0.81921000  1.0
  O  O970  1  0.21360000  0.23008000  0.82720000  1.0
  O  O971  1  0.19919000  0.20519000  0.76811000  1.0
