# generated using pymatgen
data_CdH14C22(N2O3)2
_symmetry_space_group_name_H-M   'P 1'
_cell_length_a   34.19200000
_cell_length_b   39.27600000
_cell_length_c   39.27600000
_cell_angle_alpha   89.99600000
_cell_angle_beta   89.99400000
_cell_angle_gamma   90.00600000
_symmetry_Int_Tables_number   1
_chemical_formula_structural   CdH14C22(N2O3)2
_chemical_formula_sum   'Cd16 H224 C352 N64 O96'
_cell_volume   52744.72127881
_cell_formula_units_Z   16
loop_
 _symmetry_equiv_pos_site_id
 _symmetry_equiv_pos_as_xyz
  1  'x, y, z'
loop_
 _atom_site_type_symbol
 _atom_site_label
 _atom_site_symmetry_multiplicity
 _atom_site_fract_x
 _atom_site_fract_y
 _atom_site_fract_z
 _atom_site_occupancy
  Cd  Cd0  1  0.77904000  0.79491000  0.42189000  1.0
  Cd  Cd1  1  0.29433000  0.41603000  0.69054000  1.0
  Cd  Cd2  1  0.80100000  0.70235000  0.06153000  1.0
  Cd  Cd3  1  0.29643000  0.06837000  0.79748000  1.0
  Cd  Cd4  1  0.17381000  0.65271000  0.42087000  1.0
  Cd  Cd5  1  0.70767000  0.43468000  0.79984000  1.0
  Cd  Cd6  1  0.21752000  0.80344000  0.06558000  1.0
  Cd  Cd7  1  0.68868000  0.06338000  0.67831000  1.0
  Cd  Cd8  1  0.18919000  0.19023000  0.55863000  1.0
  Cd  Cd9  1  0.69811000  0.55680000  0.28757000  1.0
  Cd  Cd10  1  0.17352000  0.29802000  0.91761000  1.0
  Cd  Cd11  1  0.69061000  0.93506000  0.19607000  1.0
  Cd  Cd12  1  0.78990000  0.30348000  0.56396000  1.0
  Cd  Cd13  1  0.29626000  0.55811000  0.17802000  1.0
  Cd  Cd14  1  0.76697000  0.18609000  0.91735000  1.0
  Cd  Cd15  1  0.28513000  0.90081000  0.32299000  1.0
  H  H16  1  0.84406000  0.73316000  0.43061000  1.0
  H  H17  1  0.85055000  0.83484000  0.46209000  1.0
  H  H18  1  0.74947000  0.86738000  0.45271000  1.0
  H  H19  1  0.76927000  0.77587000  0.50458000  1.0
  H  H20  1  0.91600000  0.80744000  0.47839000  1.0
  H  H21  1  0.74537000  0.81885000  0.54936000  1.0
  H  H22  1  0.38019000  0.41683000  0.65104000  1.0
  H  H23  1  0.35435000  0.43733000  0.75335000  1.0
  H  H24  1  0.24847000  0.46286000  0.63173000  1.0
  H  H25  1  0.32457000  0.49367000  0.70947000  1.0
  H  H26  1  0.42875000  0.44137000  0.74760000  1.0
  H  H27  1  0.30423000  0.54784000  0.67793000  1.0
  H  H28  1  0.87444000  0.75416000  0.04530000  1.0
  H  H29  1  0.87369000  0.64756000  0.04903000  1.0
  H  H30  1  0.80785000  0.62359000  0.02755000  1.0
  H  H31  1  0.73170000  0.70409000  0.00511000  1.0
  H  H32  1  0.94488000  0.66536000  0.03750000  1.0
  H  H33  1  0.71290000  0.65552000  0.96518000  1.0
  H  H34  1  0.34603000  0.05450000  0.72632000  1.0
  H  H35  1  0.36406000  0.01354000  0.82367000  1.0
  H  H36  1  0.28115000  0.03897000  0.87579000  1.0
  H  H37  1  0.26502000  0.99067000  0.78174000  1.0
  H  H38  1  0.41895000  0.98994000  0.78535000  1.0
  H  H39  1  0.24447000  0.94749000  0.82745000  1.0
  H  H40  1  0.08923000  0.62616000  0.45144000  1.0
  H  H41  1  0.12888000  0.72590000  0.43630000  1.0
  H  H42  1  0.15152000  0.64797000  0.50416000  1.0
  H  H43  1  0.23546000  0.59444000  0.44781000  1.0
  H  H44  1  0.05715000  0.73055000  0.45428000  1.0
  H  H45  1  0.24283000  0.57494000  0.50982000  1.0
  H  H46  1  0.63972000  0.42312000  0.74315000  1.0
  H  H47  1  0.63900000  0.49036000  0.82578000  1.0
  H  H48  1  0.73205000  0.43827000  0.88154000  1.0
  H  H49  1  0.71454000  0.51793000  0.81218000  1.0
  H  H50  1  0.57218000  0.49621000  0.79706000  1.0
  H  H51  1  0.73707000  0.54543000  0.86818000  1.0
  H  H52  1  0.12852000  0.83348000  0.06053000  1.0
  H  H53  1  0.17229000  0.74179000  0.02142000  1.0
  H  H54  1  0.20633000  0.88675000  0.05426000  1.0
  H  H55  1  0.23747000  0.81133000  0.98389000  1.0
  H  H56  1  0.09873000  0.74317000  0.00696000  1.0
  H  H57  1  0.24226000  0.86831000  0.95236000  1.0
  H  H58  1  0.59750000  0.03929000  0.66843000  1.0
  H  H59  1  0.66958000  0.02995000  0.75416000  1.0
  H  H60  1  0.65780000  0.03821000  0.60299000  1.0
  H  H61  1  0.72834000  0.98682000  0.67344000  1.0
  H  H62  1  0.60112000  0.00954000  0.77229000  1.0
  H  H63  1  0.72511000  0.94895000  0.62039000  1.0
  H  H64  1  0.09971000  0.22409000  0.56722000  1.0
  H  H65  1  0.17404000  0.22222000  0.48241000  1.0
  H  H66  1  0.24860000  0.13419000  0.52291000  1.0
  H  H67  1  0.12873000  0.14907000  0.50651000  1.0
  H  H68  1  0.11279000  0.25561000  0.46443000  1.0
  H  H69  1  0.14941000  0.09990000  0.46743000  1.0
  H  H70  1  0.64669000  0.57200000  0.21943000  1.0
  H  H71  1  0.63993000  0.48753000  0.28442000  1.0
  H  H72  1  0.67876000  0.53536000  0.36613000  1.0
  H  H73  1  0.73770000  0.47897000  0.29164000  1.0
  H  H74  1  0.58541000  0.48022000  0.23970000  1.0
  H  H75  1  0.74274000  0.44472000  0.34708000  1.0
  H  H76  1  0.12115000  0.22721000  0.91010000  1.0
  H  H77  1  0.10434000  0.31017000  0.97572000  1.0
  H  H78  1  0.20564000  0.37232000  0.94657000  1.0
  H  H79  1  0.18370000  0.28163000  0.99935000  1.0
  H  H80  1  0.04773000  0.26834000  0.98692000  1.0
  H  H81  1  0.20965000  0.32419000  0.04352000  1.0
  H  H82  1  0.60376000  0.92663000  0.16103000  1.0
  H  H83  1  0.63177000  0.94902000  0.26244000  1.0
  H  H84  1  0.73470000  0.96517000  0.12875000  1.0
  H  H85  1  0.64121000  0.00758000  0.18301000  1.0
  H  H86  1  0.55683000  0.94433000  0.25958000  1.0
  H  H87  1  0.65723000  0.04953000  0.13484000  1.0
  H  H88  1  0.87288000  0.34546000  0.55077000  1.0
  H  H89  1  0.84654000  0.24262000  0.53356000  1.0
  H  H90  1  0.77371000  0.37621000  0.52445000  1.0
  H  H91  1  0.78318000  0.27823000  0.48327000  1.0
  H  H92  1  0.91835000  0.25097000  0.51586000  1.0
  H  H93  1  0.76660000  0.31817000  0.43344000  1.0
  H  H94  1  0.39209000  0.55755000  0.15895000  1.0
  H  H95  1  0.32987000  0.50442000  0.23400000  1.0
  H  H96  1  0.31298000  0.53641000  0.09918000  1.0
  H  H97  1  0.25018000  0.48305000  0.17359000  1.0
  H  H98  1  0.40248000  0.48968000  0.24272000  1.0
  H  H99  1  0.24230000  0.44953000  0.11806000  1.0
  H  H100  1  0.86211000  0.16978000  0.92488000  1.0
  H  H101  1  0.79764000  0.25492000  0.95633000  1.0
  H  H102  1  0.78349000  0.10586000  0.93725000  1.0
  H  H103  1  0.75149000  0.18705000  0.00071000  1.0
  H  H104  1  0.86965000  0.26776000  0.97034000  1.0
  H  H105  1  0.75609000  0.13394000  0.03899000  1.0
  H  H106  1  0.36766000  0.88842000  0.28199000  1.0
  H  H107  1  0.31202000  0.98094000  0.30369000  1.0
  H  H108  1  0.33289000  0.96220000  0.36726000  1.0
  H  H109  1  0.21759000  0.92678000  0.37567000  1.0
  H  H110  1  0.37498000  0.99578000  0.27103000  1.0
  H  H111  1  0.22524000  0.97448000  0.41986000  1.0
  H  H112  1  0.70323000  0.86087000  0.56746000  1.0
  H  H113  1  0.67624000  0.91299000  0.59179000  1.0
  H  H114  1  0.71946000  0.97027000  0.50600000  1.0
  H  H115  1  0.74661000  0.91854000  0.48154000  1.0
  H  H116  1  0.23654000  0.49958000  0.58454000  1.0
  H  H117  1  0.20211000  0.53893000  0.54680000  1.0
  H  H118  1  0.22405000  0.62105000  0.61714000  1.0
  H  H119  1  0.25732000  0.58194000  0.65530000  1.0
  H  H120  1  0.69974000  0.60139000  0.95208000  1.0
  H  H121  1  0.69746000  0.54684000  0.92330000  1.0
  H  H122  1  0.81258000  0.52277000  0.96121000  1.0
  H  H123  1  0.81538000  0.57772000  0.99003000  1.0
  H  H124  1  0.21007000  0.93425000  0.87623000  1.0
  H  H125  1  0.19472000  0.90904000  0.93133000  1.0
  H  H126  1  0.27297000  0.97984000  0.98040000  1.0
  H  H127  1  0.28820000  0.00542000  0.92544000  1.0
  H  H128  1  0.19207000  0.07688000  0.42785000  1.0
  H  H129  1  0.23172000  0.03439000  0.39894000  1.0
  H  H130  1  0.31577000  0.03776000  0.48086000  1.0
  H  H131  1  0.27638000  0.08066000  0.50974000  1.0
  H  H132  1  0.72651000  0.36061000  0.41172000  1.0
  H  H133  1  0.70035000  0.41125000  0.38381000  1.0
  H  H134  1  0.75242000  0.47446000  0.46134000  1.0
  H  H135  1  0.77858000  0.42414000  0.48934000  1.0
  H  H136  1  0.25633000  0.36364000  0.05922000  1.0
  H  H137  1  0.28549000  0.41455000  0.08393000  1.0
  H  H138  1  0.23731000  0.47516000  0.00249000  1.0
  H  H139  1  0.20841000  0.42429000  0.97740000  1.0
  H  H140  1  0.77436000  0.99891000  0.09533000  1.0
  H  H141  1  0.80550000  0.02397000  0.04571000  1.0
  H  H142  1  0.70455000  0.08804000  0.02989000  1.0
  H  H143  1  0.67321000  0.06309000  0.07958000  1.0
  H  H144  1  0.77011000  0.69946000  0.35175000  1.0
  H  H145  1  0.73168000  0.65378000  0.32658000  1.0
  H  H146  1  0.64554000  0.66477000  0.40641000  1.0
  H  H147  1  0.68378000  0.71096000  0.43114000  1.0
  H  H148  1  0.17092000  0.40938000  0.74139000  1.0
  H  H149  1  0.12823000  0.39269000  0.78821000  1.0
  H  H150  1  0.22941000  0.37789000  0.85256000  1.0
  H  H151  1  0.27183000  0.39326000  0.80539000  1.0
  H  H152  1  0.78315000  0.86090000  0.14680000  1.0
  H  H153  1  0.80185000  0.82050000  0.10188000  1.0
  H  H154  1  0.68190000  0.81584000  0.06829000  1.0
  H  H155  1  0.66284000  0.85495000  0.11397000  1.0
  H  H156  1  0.27778000  0.13381000  0.69919000  1.0
  H  H157  1  0.23579000  0.15915000  0.65596000  1.0
  H  H158  1  0.14006000  0.09545000  0.68936000  1.0
  H  H159  1  0.18193000  0.07079000  0.73307000  1.0
  H  H160  1  0.28289000  0.72209000  0.43623000  1.0
  H  H161  1  0.32535000  0.76935000  0.42050000  1.0
  H  H162  1  0.24346000  0.79889000  0.34204000  1.0
  H  H163  1  0.20067000  0.75197000  0.35838000  1.0
  H  H164  1  0.80062000  0.33852000  0.67716000  1.0
  H  H165  1  0.79300000  0.38074000  0.72279000  1.0
  H  H166  1  0.75387000  0.45486000  0.64925000  1.0
  H  H167  1  0.75976000  0.41228000  0.60387000  1.0
  H  H168  1  0.23367000  0.63771000  0.10825000  1.0
  H  H169  1  0.23343000  0.68856000  0.07243000  1.0
  H  H170  1  0.35778000  0.69990000  0.08814000  1.0
  H  H171  1  0.35804000  0.64891000  0.12364000  1.0
  H  H172  1  0.71851000  0.10568000  0.84029000  1.0
  H  H173  1  0.72176000  0.07412000  0.78685000  1.0
  H  H174  1  0.83442000  0.11909000  0.76550000  1.0
  H  H175  1  0.83140000  0.15025000  0.81920000  1.0
  H  H176  1  0.28167000  0.30170000  0.66455000  1.0
  H  H177  1  0.27446000  0.25380000  0.62508000  1.0
  H  H178  1  0.28593000  0.32256000  0.54000000  1.0
  H  H179  1  0.29151000  0.37078000  0.57949000  1.0
  H  H180  1  0.85036000  0.65678000  0.16072000  1.0
  H  H181  1  0.84783000  0.61790000  0.20898000  1.0
  H  H182  1  0.72950000  0.59022000  0.18214000  1.0
  H  H183  1  0.73195000  0.62951000  0.13392000  1.0
  H  H184  1  0.20981000  0.20708000  0.84672000  1.0
  H  H185  1  0.25397000  0.16124000  0.83065000  1.0
  H  H186  1  0.32522000  0.18240000  0.91915000  1.0
  H  H187  1  0.28163000  0.22899000  0.93437000  1.0
  H  H188  1  0.70288000  0.86379000  0.35160000  1.0
  H  H189  1  0.69457000  0.90906000  0.30947000  1.0
  H  H190  1  0.81939000  0.92563000  0.30866000  1.0
  H  H191  1  0.82777000  0.88018000  0.35060000  1.0
  H  H192  1  0.77286000  0.19879000  0.61680000  1.0
  H  H193  1  0.73124000  0.15402000  0.63908000  1.0
  H  H194  1  0.63590000  0.19002000  0.57623000  1.0
  H  H195  1  0.67760000  0.23562000  0.55483000  1.0
  H  H196  1  0.26513000  0.61255000  0.27996000  1.0
  H  H197  1  0.22269000  0.62236000  0.32854000  1.0
  H  H198  1  0.15612000  0.53236000  0.30235000  1.0
  H  H199  1  0.19790000  0.52362000  0.25292000  1.0
  H  H200  1  0.76178000  0.34765000  0.86708000  1.0
  H  H201  1  0.75471000  0.29725000  0.90297000  1.0
  H  H202  1  0.63219000  0.29156000  0.87672000  1.0
  H  H203  1  0.63913000  0.34226000  0.84144000  1.0
  H  H204  1  0.15291000  0.82954000  0.16607000  1.0
  H  H205  1  0.14762000  0.85666000  0.22172000  1.0
  H  H206  1  0.26420000  0.89743000  0.21037000  1.0
  H  H207  1  0.26945000  0.87026000  0.15444000  1.0
  H  H208  1  0.89947000  0.70107000  0.42299000  1.0
  H  H209  1  0.95336000  0.66087000  0.42679000  1.0
  H  H210  1  0.01041000  0.72501000  0.50068000  1.0
  H  H211  1  0.95647000  0.76552000  0.49729000  1.0
  H  H212  1  0.52836000  0.49779000  0.75341000  1.0
  H  H213  1  0.47087000  0.48474000  0.71916000  1.0
  H  H214  1  0.52507000  0.39166000  0.68513000  1.0
  H  H215  1  0.58255000  0.40428000  0.71931000  1.0
  H  H216  1  0.99646000  0.70069000  0.05776000  1.0
  H  H217  1  0.05393000  0.73707000  0.05542000  1.0
  H  H218  1  0.98497000  0.81644000  0.00846000  1.0
  H  H219  1  0.92722000  0.78034000  0.01193000  1.0
  H  H220  1  0.53942000  0.99681000  0.66872000  1.0
  H  H221  1  0.46815000  0.99430000  0.66750000  1.0
  H  H222  1  0.46461000  0.03478000  0.76990000  1.0
  H  H223  1  0.53550000  0.03528000  0.77150000  1.0
  H  H224  1  0.03127000  0.23267000  0.55807000  1.0
  H  H225  1  0.96998000  0.26408000  0.56212000  1.0
  H  H226  1  0.00753000  0.33036000  0.48079000  1.0
  H  H227  1  0.06922000  0.29944000  0.47708000  1.0
  H  H228  1  0.46401000  0.51747000  0.25135000  1.0
  H  H229  1  0.53448000  0.52377000  0.24872000  1.0
  H  H230  1  0.52754000  0.53616000  0.13946000  1.0
  H  H231  1  0.45655000  0.53126000  0.14255000  1.0
  H  H232  1  0.92541000  0.16105000  0.95715000  1.0
  H  H233  1  0.99664000  0.15752000  0.95535000  1.0
  H  H234  1  0.00267000  0.26619000  0.93836000  1.0
  H  H235  1  0.93199000  0.26969000  0.94183000  1.0
  H  H236  1  0.44391000  0.98760000  0.26479000  1.0
  H  H237  1  0.50452000  0.98147000  0.23214000  1.0
  H  H238  1  0.46825000  0.88135000  0.19991000  1.0
  H  H239  1  0.40774000  0.88736000  0.23217000  1.0
  C  C240  1  0.77102000  0.84107000  0.37943000  1.0
  C  C241  1  0.75011000  0.73950000  0.40572000  1.0
  C  C242  1  0.89104000  0.76191000  0.45665000  1.0
  C  C243  1  0.85491000  0.75652000  0.44167000  1.0
  C  C244  1  0.85821000  0.80845000  0.45792000  1.0
  C  C245  1  0.74277000  0.85367000  0.50696000  1.0
  C  C246  1  0.75193000  0.84896000  0.47305000  1.0
  C  C247  1  0.76175000  0.80215000  0.49957000  1.0
  C  C248  1  0.29101000  0.36851000  0.64880000  1.0
  C  C249  1  0.25059000  0.40940000  0.74051000  1.0
  C  C250  1  0.41797000  0.43051000  0.69459000  1.0
  C  C251  1  0.38345000  0.42384000  0.67753000  1.0
  C  C252  1  0.37039000  0.43412000  0.72984000  1.0
  C  C253  1  0.27036000  0.51372000  0.64659000  1.0
  C  C254  1  0.26666000  0.47863000  0.64781000  1.0
  C  C255  1  0.30533000  0.49444000  0.68765000  1.0
  C  C256  1  0.79411000  0.66831000  0.11327000  1.0
  C  C257  1  0.77436000  0.76133000  0.05666000  1.0
  C  C258  1  0.92167000  0.71632000  0.03859000  1.0
  C  C259  1  0.88393000  0.72794000  0.04354000  1.0
  C  C260  1  0.88372000  0.67346000  0.04569000  1.0
  C  C261  1  0.75960000  0.62820000  0.99012000  1.0
  C  C262  1  0.78512000  0.63851000  0.01557000  1.0
  C  C263  1  0.74606000  0.67958000  0.00419000  1.0
  C  C264  1  0.31187000  0.11324000  0.83978000  1.0
  C  C265  1  0.25723000  0.08744000  0.74778000  1.0
  C  C266  1  0.39112000  0.01993000  0.74641000  1.0
  C  C267  1  0.35793000  0.03980000  0.74717000  1.0
  C  C268  1  0.36747000  0.01889000  0.79681000  1.0
  C  C269  1  0.25979000  0.98739000  0.86272000  1.0
  C  C270  1  0.27430000  0.01979000  0.85696000  1.0
  C  C271  1  0.26576000  0.99513000  0.80892000  1.0
  C  C272  1  0.16445000  0.60990000  0.37502000  1.0
  C  C273  1  0.21397000  0.70362000  0.40708000  1.0
  C  C274  1  0.06016000  0.67583000  0.45835000  1.0
  C  C275  1  0.09060000  0.65369000  0.45178000  1.0
  C  C276  1  0.11065000  0.70468000  0.44382000  1.0
  C  C277  1  0.19433000  0.60873000  0.51911000  1.0
  C  C278  1  0.17411000  0.62998000  0.49726000  1.0
  C  C279  1  0.21715000  0.60266000  0.46870000  1.0
  C  C280  1  0.70451000  0.38005000  0.83087000  1.0
  C  C281  1  0.74832000  0.44097000  0.74788000  1.0
  C  C282  1  0.59461000  0.45900000  0.76170000  1.0
  C  C283  1  0.63048000  0.44274000  0.76068000  1.0
  C  C284  1  0.63027000  0.47724000  0.80283000  1.0
  C  C285  1  0.73736000  0.49390000  0.88701000  1.0
  C  C286  1  0.72905000  0.46354000  0.87091000  1.0
  C  C287  1  0.72022000  0.50437000  0.83563000  1.0
  C  C288  1  0.21423000  0.83144000  0.12229000  1.0
  C  C289  1  0.26573000  0.75639000  0.05915000  1.0
  C  C290  1  0.09977000  0.79131000  0.03316000  1.0
  C  C291  1  0.13020000  0.80909000  0.04781000  1.0
  C  C292  1  0.15237000  0.76219000  0.02786000  1.0
  C  C293  1  0.22204000  0.88971000  0.99979000  1.0
  C  C294  1  0.21369000  0.87424000  0.03057000  1.0
  C  C295  1  0.22977000  0.83583000  0.99453000  1.0
  C  C296  1  0.66676000  0.11347000  0.64482000  1.0
  C  C297  1  0.74562000  0.07121000  0.71676000  1.0
  C  C298  1  0.58586000  0.01987000  0.72016000  1.0
  C  C299  1  0.60796000  0.03209000  0.69342000  1.0
  C  C300  1  0.64457000  0.02768000  0.73745000  1.0
  C  C301  1  0.68682000  0.98804000  0.60089000  1.0
  C  C302  1  0.67483000  0.01842000  0.61514000  1.0
  C  C303  1  0.71108000  0.99213000  0.65098000  1.0
  C  C304  1  0.17047000  0.16290000  0.61314000  1.0
  C  C305  1  0.24496000  0.23056000  0.55847000  1.0
  C  C306  1  0.09311000  0.24514000  0.51550000  1.0
  C  C307  1  0.11081000  0.22738000  0.54166000  1.0
  C  C308  1  0.14879000  0.22684000  0.49836000  1.0
  C  C309  1  0.20667000  0.10822000  0.48883000  1.0
  C  C310  1  0.21927000  0.13135000  0.51300000  1.0
  C  C311  1  0.15810000  0.13905000  0.50442000  1.0
  C  C312  1  0.67477000  0.60347000  0.32486000  1.0
  C  C313  1  0.75402000  0.56858000  0.24901000  1.0
  C  C314  1  0.60736000  0.52762000  0.21998000  1.0
  C  C315  1  0.63822000  0.54772000  0.23016000  1.0
  C  C316  1  0.63449000  0.50463000  0.26337000  1.0
  C  C317  1  0.70768000  0.48522000  0.36813000  1.0
  C  C318  1  0.69346000  0.51459000  0.35334000  1.0
  C  C319  1  0.72381000  0.48576000  0.31543000  1.0
  C  C320  1  0.15859000  0.34425000  0.87628000  1.0
  C  C321  1  0.21663000  0.25036000  0.90082000  1.0
  C  C322  1  0.07553000  0.23829000  0.94800000  1.0
  C  C323  1  0.10936000  0.24358000  0.92972000  1.0
  C  C324  1  0.10044000  0.28588000  0.96319000  1.0
  C  C325  1  0.21257000  0.35875000  0.00093000  1.0
  C  C326  1  0.20256000  0.35416000  0.96710000  1.0
  C  C327  1  0.19167000  0.30776000  0.99411000  1.0
  C  C328  1  0.71067000  0.88730000  0.15853000  1.0
  C  C329  1  0.72705000  0.94351000  0.24959000  1.0
  C  C330  1  0.56660000  0.93526000  0.20614000  1.0
  C  C331  1  0.60086000  0.93313000  0.18768000  1.0
  C  C332  1  0.61500000  0.94446000  0.23953000  1.0
  C  C333  1  0.70181000  0.01304000  0.12155000  1.0
  C  C334  1  0.71177000  0.98243000  0.13655000  1.0
  C  C335  1  0.66383000  0.00403000  0.16409000  1.0
  C  C336  1  0.78483000  0.34702000  0.60977000  1.0
  C  C337  1  0.75207000  0.25050000  0.57444000  1.0
  C  C338  1  0.90883000  0.30283000  0.53162000  1.0
  C  C339  1  0.87581000  0.31890000  0.54394000  1.0
  C  C340  1  0.86256000  0.26632000  0.53516000  1.0
  C  C341  1  0.76772000  0.35744000  0.47175000  1.0
  C  C342  1  0.77521000  0.35559000  0.50627000  1.0
  C  C343  1  0.77969000  0.30554000  0.48516000  1.0
  C  C344  1  0.29609000  0.60900000  0.14073000  1.0
  C  C345  1  0.25825000  0.56326000  0.23153000  1.0
  C  C346  1  0.41155000  0.52221000  0.19931000  1.0
  C  C347  1  0.38526000  0.54021000  0.17951000  1.0
  C  C348  1  0.35367000  0.51324000  0.21813000  1.0
  C  C349  1  0.28029000  0.48800000  0.09701000  1.0
  C  C350  1  0.29664000  0.51650000  0.11186000  1.0
  C  C351  1  0.26435000  0.48926000  0.14977000  1.0
  C  C352  1  0.77223000  0.15046000  0.86548000  1.0
  C  C353  1  0.71794000  0.23245000  0.91564000  1.0
  C  C354  1  0.88006000  0.21780000  0.94969000  1.0
  C  C355  1  0.85460000  0.19394000  0.93637000  1.0
  C  C356  1  0.82184000  0.23768000  0.95218000  1.0
  C  C357  1  0.77098000  0.10824000  0.99231000  1.0
  C  C358  1  0.77562000  0.12039000  0.95962000  1.0
  C  C359  1  0.75915000  0.16173000  0.99217000  1.0
  C  C360  1  0.30350000  0.84667000  0.35186000  1.0
  C  C361  1  0.23332000  0.89814000  0.27897000  1.0
  C  C362  1  0.38404000  0.94154000  0.27058000  1.0
  C  C363  1  0.36157000  0.91539000  0.28361000  1.0
  C  C364  1  0.33333333  0.96268000  0.29478000  1.0
  C  C365  1  0.28378000  0.97826000  0.39996000  1.0
  C  C366  1  0.30279000  0.95944000  0.37527000  1.0
  C  C367  1  0.24389000  0.94153000  0.37970000  1.0
  C  C368  1  0.72733000  0.88537000  0.52255000  1.0
  C  C369  1  0.70757000  0.88457000  0.55395000  1.0
  C  C370  1  0.69211000  0.91442000  0.56796000  1.0
  C  C371  1  0.69647000  0.94566000  0.55103000  1.0
  C  C372  1  0.71588000  0.94647000  0.51960000  1.0
  C  C373  1  0.73133000  0.91673000  0.50559000  1.0
  C  C374  1  0.68004000  0.97749000  0.56519000  1.0
  C  C375  1  0.25013000  0.53752000  0.62295000  1.0
  C  C376  1  0.23414000  0.52602000  0.59199000  1.0
  C  C377  1  0.21484000  0.54865000  0.57009000  1.0
  C  C378  1  0.21128000  0.58324000  0.57865000  1.0
  C  C379  1  0.22683000  0.59461000  0.60969000  1.0
  C  C380  1  0.24617000  0.57212000  0.63148000  1.0
  C  C381  1  0.18962000  0.60754000  0.55663000  1.0
  C  C382  1  0.75803000  0.59443000  0.97313000  1.0
  C  C383  1  0.72497000  0.58493000  0.95403000  1.0
  C  C384  1  0.72357000  0.55355000  0.93739000  1.0
  C  C385  1  0.75524000  0.53095000  0.93933000  1.0
  C  C386  1  0.78790000  0.53992000  0.95906000  1.0
  C  C387  1  0.78940000  0.57140000  0.97565000  1.0
  C  C388  1  0.75392000  0.49764000  0.92166000  1.0
  C  C389  1  0.25070000  0.97173000  0.89623000  1.0
  C  C390  1  0.22452000  0.94420000  0.89862000  1.0
  C  C391  1  0.21579000  0.92959000  0.93021000  1.0
  C  C392  1  0.23349000  0.94186000  0.96003000  1.0
  C  C393  1  0.25918000  0.96966000  0.95775000  1.0
  C  C394  1  0.26779000  0.98438000  0.92623000  1.0
  C  C395  1  0.22434000  0.92697000  0.99385000  1.0
  C  C396  1  0.23075000  0.08204000  0.47135000  1.0
  C  C397  1  0.21867000  0.06827000  0.44004000  1.0
  C  C398  1  0.24135000  0.04371000  0.42348000  1.0
  C  C399  1  0.27637000  0.03196000  0.43808000  1.0
  C  C400  1  0.28874000  0.04607000  0.46913000  1.0
  C  C401  1  0.26617000  0.07077000  0.48561000  1.0
  C  C402  1  0.30096000  0.00610000  0.42055000  1.0
  C  C403  1  0.75467000  0.38818000  0.45288000  1.0
  C  C404  1  0.73314000  0.38529000  0.42248000  1.0
  C  C405  1  0.71822000  0.41432000  0.40636000  1.0
  C  C406  1  0.72492000  0.44680000  0.42012000  1.0
  C  C407  1  0.74691000  0.44971000  0.45014000  1.0
  C  C408  1  0.76177000  0.42080000  0.46624000  1.0
  C  C409  1  0.70703000  0.47773000  0.40512000  1.0
  C  C410  1  0.22966000  0.38983000  0.01643000  1.0
  C  C411  1  0.25134000  0.38784000  0.04680000  1.0
  C  C412  1  0.26796000  0.41705000  0.06111000  1.0
  C  C413  1  0.26274000  0.44895000  0.04564000  1.0
  C  C414  1  0.24148000  0.45091000  0.01512000  1.0
  C  C415  1  0.22503000  0.42172000  0.00071000  1.0
  C  C416  1  0.28067000  0.48017000  0.06006000  1.0
  C  C417  1  0.72118000  0.02899000  0.09169000  1.0
  C  C418  1  0.75865000  0.01833000  0.08142000  1.0
  C  C419  1  0.77668000  0.03282000  0.05300000  1.0
  C  C420  1  0.75790000  0.05850000  0.03430000  1.0
  C  C421  1  0.72040000  0.06911000  0.04442000  1.0
  C  C422  1  0.70232000  0.05463000  0.07289000  1.0
  C  C423  1  0.77685000  0.07262000  0.00334000  1.0
  C  C424  1  0.72983000  0.70880000  0.39331000  1.0
  C  C425  1  0.74333000  0.69164000  0.36424000  1.0
  C  C426  1  0.72137000  0.66524000  0.34996000  1.0
  C  C427  1  0.68558000  0.65537000  0.36462000  1.0
  C  C428  1  0.67293000  0.67180000  0.39445000  1.0
  C  C429  1  0.69487000  0.69818000  0.40869000  1.0
  C  C430  1  0.65969000  0.63014000  0.34768000  1.0
  C  C431  1  0.22466000  0.40224000  0.76966000  1.0
  C  C432  1  0.18394000  0.40254000  0.76558000  1.0
  C  C433  1  0.15953000  0.39297000  0.79245000  1.0
  C  C434  1  0.17525000  0.38281000  0.82398000  1.0
  C  C435  1  0.21605000  0.38391000  0.82839000  1.0
  C  C436  1  0.24048000  0.39331000  0.80143000  1.0
  C  C437  1  0.14829000  0.37099000  0.85134000  1.0
  C  C438  1  0.72161000  0.86093000  0.13370000  1.0
  C  C439  1  0.76077000  0.85073000  0.13015000  1.0
  C  C440  1  0.77142000  0.82763000  0.10467000  1.0
  C  C441  1  0.74321000  0.81529000  0.08188000  1.0
  C  C442  1  0.70403000  0.82510000  0.08573000  1.0
  C  C443  1  0.69318000  0.84732000  0.11182000  1.0
  C  C444  1  0.75484000  0.79438000  0.05244000  1.0
  C  C445  1  0.23305000  0.10044000  0.71954000  1.0
  C  C446  1  0.24790000  0.12493000  0.69692000  1.0
  C  C447  1  0.22387000  0.13922000  0.67189000  1.0
  C  C448  1  0.18457000  0.12904000  0.66884000  1.0
  C  C449  1  0.17017000  0.10386000  0.69100000  1.0
  C  C450  1  0.19414000  0.08969000  0.71603000  1.0
  C  C451  1  0.15738000  0.14613000  0.64473000  1.0
  C  C452  1  0.23853000  0.73334000  0.39850000  1.0
  C  C453  1  0.27378000  0.73893000  0.41589000  1.0
  C  C454  1  0.29810000  0.76603000  0.40685000  1.0
  C  C455  1  0.28770000  0.78828000  0.38030000  1.0
  C  C456  1  0.25204000  0.78294000  0.36322000  1.0
  C  C457  1  0.22764000  0.75579000  0.37233000  1.0
  C  C458  1  0.31569000  0.81517000  0.36933000  1.0
  C  C459  1  0.78087000  0.37233000  0.63713000  1.0
  C  C460  1  0.79024000  0.36381000  0.67087000  1.0
  C  C461  1  0.78563000  0.38776000  0.69691000  1.0
  C  C462  1  0.77275000  0.42083000  0.68934000  1.0
  C  C463  1  0.76378000  0.42943000  0.65557000  1.0
  C  C464  1  0.76715000  0.40518000  0.62973000  1.0
  C  C465  1  0.77037000  0.44691000  0.71629000  1.0
  C  C466  1  0.29585000  0.63952000  0.11885000  1.0
  C  C467  1  0.26090000  0.65117000  0.10408000  1.0
  C  C468  1  0.26069000  0.68050000  0.08387000  1.0
  C  C469  1  0.29550000  0.69862000  0.07802000  1.0
  C  C470  1  0.33050000  0.68650000  0.09231000  1.0
  C  C471  1  0.33065000  0.65739000  0.11270000  1.0
  C  C472  1  0.29627000  0.72996000  0.05695000  1.0
  C  C473  1  0.77461000  0.13053000  0.83376000  1.0
  C  C474  1  0.74393000  0.10880000  0.82414000  1.0
  C  C475  1  0.74559000  0.09105000  0.79332000  1.0
  C  C476  1  0.77796000  0.09478000  0.77156000  1.0
  C  C477  1  0.80901000  0.11590000  0.78166000  1.0
  C  C478  1  0.80727000  0.13375000  0.81236000  1.0
  C  C479  1  0.78019000  0.07655000  0.73855000  1.0
  C  C480  1  0.28723000  0.33981000  0.62495000  1.0
  C  C481  1  0.28251000  0.30655000  0.63741000  1.0
  C  C482  1  0.27813000  0.27925000  0.61493000  1.0
  C  C483  1  0.27953000  0.28468000  0.57964000  1.0
  C  C484  1  0.28475000  0.31787000  0.56716000  1.0
  C  C485  1  0.28790000  0.34533000  0.58966000  1.0
  C  C486  1  0.27680000  0.25565000  0.55587000  1.0
  C  C487  1  0.79133000  0.64623000  0.14360000  1.0
  C  C488  1  0.82363000  0.64272000  0.16534000  1.0
  C  C489  1  0.82221000  0.62038000  0.19294000  1.0
  C  C490  1  0.78834000  0.60128000  0.19968000  1.0
  C  C491  1  0.75571000  0.60517000  0.17823000  1.0
  C  C492  1  0.75723000  0.62745000  0.15041000  1.0
  C  C493  1  0.78868000  0.57620000  0.22799000  1.0
  C  C494  1  0.24237000  0.22163000  0.89171000  1.0
  C  C495  1  0.23478000  0.20169000  0.86281000  1.0
  C  C496  1  0.25995000  0.17508000  0.85387000  1.0
  C  C497  1  0.29295000  0.16751000  0.87398000  1.0
  C  C498  1  0.30008000  0.18736000  0.90313000  1.0
  C  C499  1  0.27514000  0.21412000  0.91185000  1.0
  C  C500  1  0.32156000  0.14072000  0.86385000  1.0
  C  C501  1  0.76600000  0.86844000  0.35418000  1.0
  C  C502  1  0.72852000  0.87706000  0.34232000  1.0
  C  C503  1  0.72378000  0.90275000  0.31805000  1.0
  C  C504  1  0.75642000  0.92048000  0.30556000  1.0
  C  C505  1  0.79378000  0.91226000  0.31790000  1.0
  C  C506  1  0.79859000  0.88623000  0.34176000  1.0
  C  C507  1  0.75206000  0.94773000  0.27984000  1.0
  C  C508  1  0.72838000  0.22072000  0.58421000  1.0
  C  C509  1  0.74320000  0.19673000  0.60732000  1.0
  C  C510  1  0.71927000  0.17080000  0.61991000  1.0
  C  C511  1  0.68008000  0.16803000  0.60925000  1.0
  C  C512  1  0.66587000  0.19137000  0.58504000  1.0
  C  C513  1  0.68974000  0.21747000  0.57270000  1.0
  C  C514  1  0.65291000  0.14304000  0.62520000  1.0
  C  C515  1  0.23467000  0.56741000  0.26267000  1.0
  C  C516  1  0.24168000  0.59468000  0.28492000  1.0
  C  C517  1  0.21742000  0.60007000  0.31308000  1.0
  C  C518  1  0.18604000  0.57786000  0.31994000  1.0
  C  C519  1  0.17995000  0.54999000  0.29801000  1.0
  C  C520  1  0.20385000  0.54494000  0.26963000  1.0
  C  C521  1  0.15758000  0.58465000  0.34792000  1.0
  C  C522  1  0.70109000  0.34868000  0.85128000  1.0
  C  C523  1  0.73348000  0.33539000  0.86876000  1.0
  C  C524  1  0.72945000  0.30635000  0.88909000  1.0
  C  C525  1  0.69299000  0.29000000  0.89212000  1.0
  C  C526  1  0.66065000  0.30354000  0.87478000  1.0
  C  C527  1  0.66468000  0.33247000  0.85446000  1.0
  C  C528  1  0.68788000  0.25921000  0.91357000  1.0
  C  C529  1  0.21161000  0.84776000  0.15602000  1.0
  C  C530  1  0.17749000  0.84414000  0.17552000  1.0
  C  C531  1  0.17443000  0.85969000  0.20734000  1.0
  C  C532  1  0.20568000  0.87871000  0.22062000  1.0
  C  C533  1  0.23997000  0.88225000  0.20118000  1.0
  C  C534  1  0.24284000  0.86701000  0.16904000  1.0
  C  C535  1  0.20119000  0.89572000  0.25409000  1.0
  C  C536  1  0.92354000  0.73691000  0.45959000  1.0
  C  C537  1  0.92323000  0.70677000  0.44023000  1.0
  C  C538  1  0.95421000  0.68370000  0.44226000  1.0
  C  C539  1  0.98637000  0.69032000  0.46338000  1.0
  C  C540  1  0.98647000  0.71990000  0.48337000  1.0
  C  C541  1  0.95543000  0.74304000  0.48142000  1.0
  C  C542  1  0.01904000  0.66566000  0.46465000  1.0
  C  C543  1  0.56018000  0.45195000  0.73963000  1.0
  C  C544  1  0.52808000  0.47436000  0.73896000  1.0
  C  C545  1  0.49501000  0.46690000  0.71937000  1.0
  C  C546  1  0.49319000  0.43677000  0.70023000  1.0
  C  C547  1  0.52563000  0.41492000  0.69994000  1.0
  C  C548  1  0.55866000  0.42231000  0.71953000  1.0
  C  C549  1  0.45791000  0.42796000  0.68014000  1.0
  C  C550  1  0.95727000  0.73757000  0.03493000  1.0
  C  C551  1  0.99373000  0.72567000  0.04636000  1.0
  C  C552  1  0.02688000  0.74653000  0.04474000  1.0
  C  C553  1  0.02449000  0.77953000  0.03094000  1.0
  C  C554  1  0.98802000  0.79112000  0.01906000  1.0
  C  C555  1  0.95482000  0.77047000  0.02114000  1.0
  C  C556  1  0.05869000  0.80312000  0.03112000  1.0
  C  C557  1  0.54290000  0.01585000  0.72033000  1.0
  C  C558  1  0.52323000  0.00445000  0.69115000  1.0
  C  C559  1  0.48239000  0.00303000  0.69053000  1.0
  C  C560  1  0.46023000  0.01356000  0.71886000  1.0
  C  C561  1  0.48021000  0.02503000  0.74805000  1.0
  C  C562  1  0.52107000  0.02563000  0.74893000  1.0
  C  C563  1  0.41668000  0.01489000  0.71645000  1.0
  C  C564  1  0.05515000  0.26338000  0.51710000  1.0
  C  C565  1  0.02649000  0.25387000  0.54096000  1.0
  C  C566  1  0.99113000  0.27162000  0.54303000  1.0
  C  C567  1  0.98365000  0.29927000  0.52129000  1.0
  C  C568  1  0.01237000  0.30893000  0.49762000  1.0
  C  C569  1  0.04761000  0.29103000  0.49537000  1.0
  C  C570  1  0.94688000  0.31917000  0.52417000  1.0
  C  C571  1  0.45475000  0.52367000  0.19713000  1.0
  C  C572  1  0.47761000  0.52093000  0.22669000  1.0
  C  C573  1  0.51828000  0.52428000  0.22509000  1.0
  C  C574  1  0.53720000  0.52959000  0.19370000  1.0
  C  C575  1  0.51414000  0.53182000  0.16406000  1.0
  C  C576  1  0.47341000  0.52912000  0.16579000  1.0
  C  C577  1  0.58030000  0.53541000  0.19163000  1.0
  C  C578  1  0.92322000  0.21569000  0.95002000  1.0
  C  C579  1  0.94213000  0.18419000  0.95355000  1.0
  C  C580  1  0.98294000  0.18223000  0.95258000  1.0
  C  C581  1  0.00573000  0.21166000  0.94765000  1.0
  C  C582  1  0.98654000  0.24313000  0.94376000  1.0
  C  C583  1  0.94581000  0.24516000  0.94543000  1.0
  C  C584  1  0.04902000  0.20877000  0.94425000  1.0
  C  C585  1  0.42101000  0.93794000  0.25117000  1.0
  C  C586  1  0.44886000  0.96429000  0.25074000  1.0
  C  C587  1  0.48375000  0.96066000  0.23242000  1.0
  C  C588  1  0.49127000  0.93070000  0.21403000  1.0
  C  C589  1  0.46329000  0.90457000  0.21416000  1.0
  C  C590  1  0.42871000  0.90800000  0.23277000  1.0
  C  C591  1  0.52707000  0.92694000  0.19310000  1.0
  N  N592  1  0.83456000  0.78581000  0.44247000  1.0
  N  N593  1  0.89273000  0.79465000  0.46690000  1.0
  N  N594  1  0.76361000  0.81662000  0.46853000  1.0
  N  N595  1  0.74911000  0.82410000  0.52352000  1.0
  N  N596  1  0.35366000  0.42612000  0.69981000  1.0
  N  N597  1  0.40951000  0.43677000  0.72750000  1.0
  N  N598  1  0.28870000  0.46668000  0.67366000  1.0
  N  N599  1  0.29485000  0.52333000  0.67171000  1.0
  N  N600  1  0.86029000  0.70094000  0.04816000  1.0
  N  N601  1  0.92128000  0.68204000  0.03994000  1.0
  N  N602  1  0.77638000  0.67081000  0.02422000  1.0
  N  N603  1  0.73532000  0.65432000  0.98315000  1.0
  N  N604  1  0.34338000  0.03942000  0.77899000  1.0
  N  N605  1  0.39676000  0.00644000  0.77753000  1.0
  N  N606  1  0.27783000  0.02449000  0.82315000  1.0
  N  N607  1  0.25459000  0.97208000  0.83233000  1.0
  N  N608  1  0.12214000  0.67190000  0.44238000  1.0
  N  N609  1  0.07298000  0.70788000  0.45327000  1.0
  N  N610  1  0.18847000  0.62601000  0.46558000  1.0
  N  N611  1  0.22152000  0.59178000  0.50100000  1.0
  N  N612  1  0.65268000  0.45422000  0.78653000  1.0
  N  N613  1  0.59489000  0.48082000  0.78822000  1.0
  N  N614  1  0.71829000  0.47023000  0.83863000  1.0
  N  N615  1  0.73175000  0.51950000  0.86470000  1.0
  N  N616  1  0.16310000  0.79058000  0.04473000  1.0
  N  N617  1  0.11389000  0.76199000  0.02031000  1.0
  N  N618  1  0.21880000  0.84045000  0.02715000  1.0
  N  N619  1  0.23226000  0.86537000  0.97729000  1.0
  N  N620  1  0.64468000  0.03733000  0.70453000  1.0
  N  N621  1  0.60904000  0.01705000  0.74773000  1.0
  N  N622  1  0.69035000  0.02093000  0.64647000  1.0
  N  N623  1  0.70970000  0.97166000  0.62354000  1.0
  N  N624  1  0.14580000  0.21596000  0.53078000  1.0
  N  N625  1  0.11718000  0.24463000  0.48833000  1.0
  N  N626  1  0.18873000  0.15078000  0.52253000  1.0
  N  N627  1  0.16815000  0.11329000  0.48358000  1.0
  N  N628  1  0.65498000  0.53343000  0.25765000  1.0
  N  N629  1  0.60537000  0.50032000  0.24063000  1.0
  N  N630  1  0.70390000  0.51497000  0.32035000  1.0
  N  N631  1  0.72677000  0.46717000  0.34415000  1.0
  N  N632  1  0.12478000  0.27368000  0.93909000  1.0
  N  N633  1  0.07025000  0.26471000  0.96934000  1.0
  N  N634  1  0.18958000  0.32209000  0.96302000  1.0
  N  N635  1  0.20550000  0.32945000  0.01772000  1.0
  N  N636  1  0.63117000  0.93879000  0.20876000  1.0
  N  N637  1  0.57566000  0.94237000  0.23876000  1.0
  N  N638  1  0.68791000  0.97691000  0.16319000  1.0
  N  N639  1  0.67151000  0.02642000  0.13899000  1.0
  N  N640  1  0.84693000  0.29576000  0.54633000  1.0
  N  N641  1  0.90026000  0.26985000  0.52597000  1.0
  N  N642  1  0.78235000  0.32296000  0.51462000  1.0
  N  N643  1  0.77079000  0.32585000  0.45861000  1.0
  N  N644  1  0.34899000  0.53470000  0.19170000  1.0
  N  N645  1  0.39144000  0.50525000  0.22344000  1.0
  N  N646  1  0.28641000  0.51728000  0.14490000  1.0
  N  N647  1  0.25992000  0.47101000  0.12099000  1.0
  N  N648  1  0.81814000  0.20676000  0.93773000  1.0
  N  N649  1  0.85926000  0.24517000  0.95963000  1.0
  N  N650  1  0.76778000  0.15393000  0.95962000  1.0
  N  N651  1  0.76096000  0.13436000  0.01275000  1.0
  N  N652  1  0.33000000  0.92875000  0.29912000  1.0
  N  N653  1  0.36618000  0.97124000  0.27780000  1.0
  N  N654  1  0.27735000  0.93676000  0.36216000  1.0
  N  N655  1  0.24693000  0.96658000  0.40290000  1.0
  O  O656  1  0.73630000  0.75866000  0.42998000  1.0
  O  O657  1  0.78141000  0.75192000  0.39140000  1.0
  O  O658  1  0.74201000  0.82780000  0.39628000  1.0
  O  O659  1  0.80479000  0.82774000  0.38711000  1.0
  O  O660  1  0.23803000  0.41815000  0.71039000  1.0
  O  O661  1  0.28832000  0.40530000  0.74180000  1.0
  O  O662  1  0.28041000  0.39952000  0.64160000  1.0
  O  O663  1  0.30418000  0.36512000  0.67966000  1.0
  O  O664  1  0.78705000  0.74370000  0.03104000  1.0
  O  O665  1  0.77772000  0.74546000  0.08555000  1.0
  O  O666  1  0.76640000  0.67051000  0.09028000  1.0
  O  O667  1  0.82534000  0.68641000  0.10636000  1.0
  O  O668  1  0.24373000  0.06748000  0.77150000  1.0
  O  O669  1  0.29356000  0.09614000  0.75252000  1.0
  O  O670  1  0.27687000  0.10079000  0.83571000  1.0
  O  O671  1  0.33802000  0.09894000  0.82044000  1.0
  O  O672  1  0.22392000  0.68094000  0.42969000  1.0
  O  O673  1  0.18070000  0.69694000  0.39235000  1.0
  O  O674  1  0.19859000  0.61700000  0.38793000  1.0
  O  O675  1  0.13604000  0.62679000  0.38904000  1.0
  O  O676  1  0.75119000  0.46082000  0.77425000  1.0
  O  O677  1  0.72228000  0.41700000  0.75147000  1.0
  O  O678  1  0.73689000  0.39740000  0.82749000  1.0
  O  O679  1  0.67466000  0.39394000  0.81565000  1.0
  O  O680  1  0.27050000  0.78664000  0.04640000  1.0
  O  O681  1  0.23283000  0.75300000  0.07548000  1.0
  O  O682  1  0.24183000  0.83762000  0.10028000  1.0
  O  O683  1  0.18878000  0.80933000  0.11150000  1.0
  O  O684  1  0.74746000  0.05512000  0.68788000  1.0
  O  O685  1  0.71093000  0.08317000  0.72341000  1.0
  O  O686  1  0.69857000  0.09661000  0.63791000  1.0
  O  O687  1  0.64755000  0.10126000  0.67063000  1.0
  O  O688  1  0.24530000  0.20167000  0.54225000  1.0
  O  O689  1  0.21273000  0.23603000  0.57530000  1.0
  O  O690  1  0.20340000  0.15644000  0.59767000  1.0
  O  O691  1  0.14869000  0.18480000  0.59711000  1.0
  O  O692  1  0.75498000  0.54630000  0.27351000  1.0
  O  O693  1  0.72056000  0.58430000  0.24655000  1.0
  O  O694  1  0.71015000  0.59127000  0.32639000  1.0
  O  O695  1  0.65306000  0.58877000  0.30200000  1.0
  O  O696  1  0.22512000  0.27197000  0.92490000  1.0
  O  O697  1  0.18325000  0.25657000  0.88589000  1.0
  O  O698  1  0.19407000  0.33468000  0.88370000  1.0
  O  O699  1  0.13203000  0.32712000  0.89269000  1.0
  O  O700  1  0.72661000  0.96565000  0.22489000  1.0
  O  O701  1  0.70580000  0.91652000  0.24365000  1.0
  O  O702  1  0.73463000  0.91092000  0.16879000  1.0
  O  O703  1  0.67534000  0.89091000  0.17034000  1.0
  O  O704  1  0.73794000  0.27672000  0.55834000  1.0
  O  O705  1  0.78827000  0.25457000  0.58373000  1.0
  O  O706  1  0.81008000  0.32226000  0.61033000  1.0
  O  O707  1  0.76297000  0.34697000  0.58273000  1.0
  O  O708  1  0.24793000  0.54365000  0.20633000  1.0
  O  O709  1  0.29065000  0.57977000  0.22591000  1.0
  O  O710  1  0.26565000  0.58956000  0.14512000  1.0
  O  O711  1  0.32669000  0.59899000  0.15782000  1.0
  O  O712  1  0.71340000  0.20478000  0.93348000  1.0
  O  O713  1  0.75061000  0.23319000  0.89867000  1.0
  O  O714  1  0.74346000  0.14794000  0.88708000  1.0
  O  O715  1  0.79812000  0.17320000  0.87410000  1.0
  O  O716  1  0.22939000  0.91403000  0.30785000  1.0
  O  O717  1  0.26728000  0.88344000  0.27540000  1.0
  O  O718  1  0.26824000  0.85916000  0.35264000  1.0
  O  O719  1  0.32799000  0.86558000  0.33503000  1.0
  O  O720  1  0.66166000  0.99640000  0.54635000  1.0
  O  O721  1  0.16771000  0.62809000  0.57014000  1.0
  O  O722  1  0.76744000  0.47258000  0.93588000  1.0
  O  O723  1  0.21970000  0.94616000  0.01802000  1.0
  O  O724  1  0.33653000  0.00779000  0.42315000  1.0
  O  O725  1  0.69222000  0.49859000  0.42429000  1.0
  O  O726  1  0.29538000  0.50079000  0.04057000  1.0
  O  O727  1  0.79786000  0.05418000  0.98619000  1.0
  O  O728  1  0.62438000  0.63169000  0.35228000  1.0
  O  O729  1  0.11502000  0.38236000  0.85213000  1.0
  O  O730  1  0.74697000  0.80432000  0.02377000  1.0
  O  O731  1  0.12246000  0.14678000  0.65137000  1.0
  O  O732  1  0.35060000  0.81103000  0.37464000  1.0
  O  O733  1  0.78646000  0.47435000  0.71200000  1.0
  O  O734  1  0.32443000  0.73518000  0.03850000  1.0
  O  O735  1  0.81193000  0.06644000  0.72842000  1.0
  O  O736  1  0.30099000  0.25274000  0.53316000  1.0
  O  O737  1  0.81930000  0.56169000  0.23489000  1.0
  O  O738  1  0.35490000  0.14190000  0.87504000  1.0
  O  O739  1  0.77132000  0.97378000  0.28272000  1.0
  O  O740  1  0.61764000  0.14765000  0.62316000  1.0
  O  O741  1  0.12623000  0.56969000  0.34796000  1.0
  O  O742  1  0.65724000  0.25519000  0.92909000  1.0
  O  O743  1  0.16932000  0.90748000  0.26187000  1.0
  O  O744  1  0.01152000  0.63555000  0.46902000  1.0
  O  O745  1  0.46198000  0.41716000  0.65117000  1.0
  O  O746  1  0.05277000  0.83382000  0.03038000  1.0
  O  O747  1  0.40117000  0.01311000  0.68846000  1.0
  O  O748  1  0.94796000  0.35002000  0.52019000  1.0
  O  O749  1  0.59401000  0.54844000  0.16600000  1.0
  O  O750  1  0.06340000  0.18120000  0.93704000  1.0
  O  O751  1  0.52395000  0.91554000  0.16427000  1.0
