# generated using pymatgen
data_CdH20C18(N2O)4
_symmetry_space_group_name_H-M   'P 1'
_cell_length_a   16.68945000
_cell_length_b   55.87810000
_cell_length_c   55.87810000
_cell_angle_alpha   89.99200000
_cell_angle_beta   90.00000000
_cell_angle_gamma   90.00000000
_symmetry_Int_Tables_number   1
_chemical_formula_structural   CdH20C18(N2O)4
_chemical_formula_sum   'Cd16 H320 C288 N128 O64'
_cell_volume   52110.50496780
_cell_formula_units_Z   16
loop_
 _symmetry_equiv_pos_site_id
 _symmetry_equiv_pos_as_xyz
  1  'x, y, z'
loop_
 _atom_site_type_symbol
 _atom_site_label
 _atom_site_symmetry_multiplicity
 _atom_site_fract_x
 _atom_site_fract_y
 _atom_site_fract_z
 _atom_site_occupancy
  C  C0  1  0.00006000  0.40074000  0.94995000  1.0
  C  C1  1  0.77848000  0.37816000  0.92062000  1.0
  C  C2  1  0.79622000  0.38388000  0.02569000  1.0
  C  C3  1  0.85460000  0.38525000  0.00828000  1.0
  C  C4  1  0.74560000  0.37260000  0.99244000  1.0
  C  C5  1  0.95560000  0.30815000  0.97980000  1.0
  C  C6  1  0.96876000  0.33166000  0.97338000  1.0
  C  C7  1  0.84470000  0.32337000  0.96817000  1.0
  C  C8  1  0.47254000  0.95276000  0.08700000  1.0
  C  C9  1  0.25016000  0.93254000  0.11747000  1.0
  C  C10  1  0.32566000  0.03590000  0.10338000  1.0
  C  C11  1  0.36798000  0.01488000  0.10082000  1.0
  C  C12  1  0.26608000  0.00842000  0.12319000  1.0
  C  C13  1  0.46378000  0.98275000  0.18260000  1.0
  C  C14  1  0.46988000  0.97708000  0.15864000  1.0
  C  C15  1  0.34690000  0.97454000  0.16927000  1.0
  C  C16  1  0.95032000  0.11037000  0.56681000  1.0
  C  C17  1  0.71848000  0.11687000  0.53784000  1.0
  C  C18  1  0.91484000  0.08435000  0.46802000  1.0
  C  C19  1  0.89196000  0.08626000  0.49164000  1.0
  C  C20  1  0.91996000  0.12117000  0.47834000  1.0
  C  C21  1  0.98186000  0.18741000  0.51223000  1.0
  C  C22  1  0.98076000  0.16482000  0.52219000  1.0
  C  C23  1  0.86244000  0.17367000  0.51025000  1.0
  C  C24  1  0.46058000  0.53255000  0.41215000  1.0
  C  C25  1  0.25800000  0.55128000  0.37082000  1.0
  C  C26  1  0.32354000  0.44960000  0.39378000  1.0
  C  C27  1  0.36132000  0.47113000  0.39791000  1.0
  C  C28  1  0.28762000  0.47442000  0.36671000  1.0
  C  C29  1  0.48604000  0.51939000  0.31029000  1.0
  C  C30  1  0.44476000  0.53099000  0.32821000  1.0
  C  C31  1  0.45568000  0.49396000  0.33741000  1.0
  C  C32  1  0.94436000  0.09503000  0.94643000  1.0
  C  C33  1  0.17524000  0.11670000  0.92322000  1.0
  C  C34  1  0.11976000  0.09653000  0.02670000  1.0
  C  C35  1  0.07036000  0.09869000  0.00706000  1.0
  C  C36  1  0.18440000  0.11410000  0.99869000  1.0
  C  C37  1  0.01000000  0.18514000  0.98410000  1.0
  C  C38  1  0.99030000  0.16254000  0.97614000  1.0
  C  C39  1  0.11728000  0.16730000  0.97324000  1.0
  C  C40  1  0.52496000  0.94461000  0.39569000  1.0
  C  C41  1  0.74668000  0.91964000  0.36817000  1.0
  C  C42  1  0.71310000  0.02348000  0.38468000  1.0
  C  C43  1  0.66054000  0.00449000  0.38622000  1.0
  C  C44  1  0.76136000  0.99404000  0.36494000  1.0
  C  C45  1  0.55626000  0.98002000  0.30363000  1.0
  C  C46  1  0.54650000  0.97337000  0.32723000  1.0
  C  C47  1  0.66816000  0.96694000  0.31689000  1.0
  C  C48  1  0.05770000  0.38112000  0.57058000  1.0
  C  C49  1  0.27730000  0.38600000  0.53221000  1.0
  C  C50  1  0.05224000  0.40527000  0.46749000  1.0
  C  C51  1  0.11084000  0.40020000  0.48413000  1.0
  C  C52  1  0.00092000  0.38381000  0.49523000  1.0
  C  C53  1  0.03752000  0.30756000  0.51104000  1.0
  C  C54  1  0.03650000  0.32834000  0.52432000  1.0
  C  C55  1  0.14284000  0.32778000  0.50288000  1.0
  C  C56  1  0.44966000  0.53706000  0.11508000  1.0
  C  C57  1  0.67558000  0.57064000  0.12235000  1.0
  C  C58  1  0.74552000  0.47953000  0.10301000  1.0
  C  C59  1  0.72648000  0.50315000  0.10721000  1.0
  C  C60  1  0.63168000  0.48099000  0.12050000  1.0
  C  C61  1  0.56562000  0.49845000  0.19515000  1.0
  C  C62  1  0.53690000  0.50648000  0.17347000  1.0
  C  C63  1  0.65926000  0.51745000  0.17724000  1.0
  C  C64  1  0.98064000  0.58932000  0.04741000  1.0
  C  C65  1  0.20856000  0.61904000  0.06243000  1.0
  C  C66  1  0.10356000  0.60871000  0.96160000  1.0
  C  C67  1  0.06788000  0.60499000  0.98352000  1.0
  C  C68  1  0.16484000  0.62974000  0.98777000  1.0
  C  C69  1  0.98142000  0.68733000  0.02493000  1.0
  C  C70  1  0.97636000  0.66281000  0.02754000  1.0
  C  C71  1  0.09978000  0.67320000  0.02896000  1.0
  C  C72  1  0.44592000  0.03631000  0.88952000  1.0
  C  C73  1  0.66432000  0.06542000  0.86374000  1.0
  C  C74  1  0.62668000  0.95982000  0.87527000  1.0
  C  C75  1  0.57688000  0.97935000  0.87749000  1.0
  C  C76  1  0.67812000  0.98911000  0.85604000  1.0
  C  C77  1  0.54336000  0.01936000  0.78799000  1.0
  C  C78  1  0.57656000  0.03078000  0.80748000  1.0
  C  C79  1  0.48836000  0.00581000  0.81979000  1.0
  C  C80  1  0.99090000  0.87928000  0.44994000  1.0
  C  C81  1  0.21634000  0.86817000  0.41609000  1.0
  C  C82  1  0.21254000  0.87515000  0.52118000  1.0
  C  C83  1  0.15316000  0.87467000  0.50406000  1.0
  C  C84  1  0.26182000  0.86112000  0.48880000  1.0
  C  C85  1  0.10346000  0.79177000  0.48179000  1.0
  C  C86  1  0.07670000  0.81476000  0.47764000  1.0
  C  C87  1  0.18602000  0.80927000  0.45831000  1.0
  C  C88  1  0.50938000  0.42373000  0.61668000  1.0
  C  C89  1  0.73610000  0.45144000  0.59606000  1.0
  C  C90  1  0.56868000  0.52986000  0.61192000  1.0
  C  C91  1  0.61778000  0.51000000  0.61161000  1.0
  C  C92  1  0.50034000  0.49941000  0.62295000  1.0
  C  C93  1  0.61354000  0.46325000  0.69633000  1.0
  C  C94  1  0.58542000  0.45360000  0.67525000  1.0
  C  C95  1  0.67724000  0.47912000  0.66716000  1.0
  C  C96  1  0.99082000  0.89640000  0.03487000  1.0
  C  C97  1  0.76556000  0.87399000  0.06229000  1.0
  C  C98  1  0.80848000  0.88370000  0.95678000  1.0
  C  C99  1  0.86026000  0.88416000  0.97598000  1.0
  C  C100  1  0.74776000  0.86966000  0.98741000  1.0
  C  C101  1  0.93826000  0.80303000  0.00508000  1.0
  C  C102  1  0.95356000  0.82661000  0.01072000  1.0
  C  C103  1  0.82934000  0.81936000  0.01696000  1.0
  C  C104  1  0.51918000  0.04951000  0.61177000  1.0
  C  C105  1  0.29344000  0.04914000  0.57851000  1.0
  C  C106  1  0.38016000  0.95691000  0.59886000  1.0
  C  C107  1  0.41476000  0.97923000  0.59708000  1.0
  C  C108  1  0.30484000  0.98221000  0.61661000  1.0
  C  C109  1  0.32962000  0.01748000  0.68311000  1.0
  C  C110  1  0.37512000  0.01529000  0.66265000  1.0
  C  C111  1  0.27756000  0.03922000  0.65572000  1.0
  C  C112  1  0.01544000  0.59164000  0.45293000  1.0
  C  C113  1  0.78020000  0.60214000  0.42608000  1.0
  C  C114  1  0.80552000  0.59205000  0.52901000  1.0
  C  C115  1  0.85948000  0.59170000  0.51037000  1.0
  C  C116  1  0.75684000  0.61216000  0.49987000  1.0
  C  C117  1  0.89732000  0.68513000  0.46978000  1.0
  C  C118  1  0.88244000  0.66524000  0.45592000  1.0
  C  C119  1  0.90930000  0.65392000  0.49161000  1.0
  C  C120  1  0.51624000  0.46108000  0.89161000  1.0
  C  C121  1  0.29354000  0.43007000  0.87171000  1.0
  C  C122  1  0.30374000  0.53470000  0.88350000  1.0
  C  C123  1  0.36168000  0.51714000  0.88399000  1.0
  C  C124  1  0.25672000  0.50329000  0.86681000  1.0
  C  C125  1  0.44488000  0.49604000  0.80189000  1.0
  C  C126  1  0.46190000  0.49065000  0.82544000  1.0
  C  C127  1  0.34808000  0.47548000  0.81626000  1.0
  C  C128  1  0.01726000  0.29101000  0.98925000  1.0
  C  C129  1  0.95284000  0.20375000  0.99323000  1.0
  C  C130  1  0.97838000  0.23378000  0.96052000  1.0
  C  C131  1  0.99572000  0.25789000  0.95942000  1.0
  C  C132  1  0.98532000  0.24759000  0.99645000  1.0
  C  C133  1  0.49286000  0.99027000  0.28754000  1.0
  C  C134  1  0.53148000  0.98990000  0.19880000  1.0
  C  C135  1  0.51008000  0.95881000  0.23077000  1.0
  C  C136  1  0.49984000  0.95891000  0.25527000  1.0
  C  C137  1  0.51342000  0.99530000  0.24320000  1.0
  C  C138  1  0.05410000  0.20301000  0.50875000  1.0
  C  C139  1  0.97264000  0.28905000  0.51006000  1.0
  C  C140  1  0.02386000  0.25928000  0.54012000  1.0
  C  C141  1  0.04554000  0.23545000  0.53981000  1.0
  C  C142  1  0.01216000  0.24602000  0.50409000  1.0
  C  C143  1  0.52568000  0.53091000  0.28915000  1.0
  C  C144  1  0.52070000  0.48390000  0.21323000  1.0
  C  C145  1  0.42726000  0.51218000  0.23428000  1.0
  C  C146  1  0.42852000  0.52510000  0.25532000  1.0
  C  C147  1  0.53702000  0.50433000  0.25300000  1.0
  C  C148  1  0.91216000  0.70443000  0.02393000  1.0
  C  C149  1  0.99896000  0.78536000  0.99600000  1.0
  C  C150  1  0.94006000  0.74861000  0.97691000  1.0
  C  C151  1  0.91680000  0.72619000  0.98460000  1.0
  C  C152  1  0.96102000  0.74609000  0.01488000  1.0
  C  C153  1  0.34146000  0.00416000  0.70615000  1.0
  C  C154  1  0.56550000  0.02319000  0.76226000  1.0
  C  C155  1  0.44364000  0.04470000  0.74690000  1.0
  C  C156  1  0.38198000  0.03954000  0.73128000  1.0
  C  C157  1  0.46250000  0.00943000  0.73238000  1.0
  C  C158  1  0.06770000  0.77400000  0.49888000  1.0
  C  C159  1  0.89750000  0.71068000  0.46141000  1.0
  C  C160  1  0.04502000  0.71667000  0.46885000  1.0
  C  C161  1  0.09200000  0.73428000  0.47894000  1.0
  C  C162  1  0.96854000  0.74531000  0.48082000  1.0
  C  C163  1  0.58918000  0.45600000  0.72115000  1.0
  C  C164  1  0.49474000  0.51118000  0.78545000  1.0
  C  C165  1  0.45610000  0.50279000  0.74274000  1.0
  C  C166  1  0.48242000  0.48765000  0.72490000  1.0
  C  C167  1  0.55730000  0.48284000  0.75593000  1.0
  C  C168  1  0.07398000  0.41566000  0.94776000  1.0
  C  C169  1  0.23658000  0.40944000  0.87303000  1.0
  C  C170  1  0.10380000  0.42733000  0.88440000  1.0
  C  C171  1  0.05902000  0.42913000  0.90507000  1.0
  C  C172  1  0.16590000  0.40891000  0.91275000  1.0
  C  C173  1  0.70500000  0.87509000  0.08200000  1.0
  C  C174  1  0.53942000  0.94846000  0.06978000  1.0
  C  C175  1  0.52300000  0.90448000  0.06175000  1.0
  C  C176  1  0.56894000  0.88421000  0.06499000  1.0
  C  C177  1  0.63398000  0.91459000  0.07867000  1.0
  C  C178  1  0.99890000  0.10264000  0.58788000  1.0
  C  C179  1  0.24086000  0.05881000  0.55911000  1.0
  C  C180  1  0.20942000  0.10102000  0.57149000  1.0
  C  C181  1  0.14238000  0.11316000  0.57930000  1.0
  C  C182  1  0.11074000  0.07622000  0.57349000  1.0
  C  C183  1  0.72076000  0.59750000  0.40665000  1.0
  C  C184  1  0.51524000  0.53803000  0.43260000  1.0
  C  C185  1  0.52788000  0.58283000  0.43298000  1.0
  C  C186  1  0.58450000  0.59927000  0.42570000  1.0
  C  C187  1  0.62922000  0.56382000  0.41850000  1.0
  C  C188  1  0.72462000  0.08523000  0.86391000  1.0
  C  C189  1  0.86774000  0.08185000  0.94225000  1.0
  C  C190  1  0.89684000  0.06869000  0.90010000  1.0
  C  C191  1  0.85692000  0.06940000  0.87850000  1.0
  C  C192  1  0.78446000  0.08698000  0.90514000  1.0
  C  C193  1  0.27020000  0.87231000  0.39511000  1.0
  C  C194  1  0.45338000  0.94108000  0.41135000  1.0
  C  C195  1  0.45946000  0.89640000  0.41641000  1.0
  C  C196  1  0.40868000  0.87741000  0.41205000  1.0
  C  C197  1  0.35066000  0.90994000  0.40068000  1.0
  C  C198  1  0.81068000  0.44990000  0.58134000  1.0
  C  C199  1  0.01154000  0.38483000  0.59320000  1.0
  C  C200  1  0.86860000  0.38723000  0.57930000  1.0
  C  C201  1  0.81302000  0.40521000  0.57603000  1.0
  C  C202  1  0.92110000  0.42069000  0.59032000  1.0
  C  C203  1  0.28246000  0.61973000  0.07751000  1.0
  C  C204  1  0.36502000  0.53891000  0.10665000  1.0
  C  C205  1  0.38876000  0.56353000  0.06969000  1.0
  C  C206  1  0.36630000  0.58588000  0.06168000  1.0
  C  C207  1  0.31406000  0.58004000  0.09647000  1.0
  C  C208  1  0.91726000  0.57134000  0.05332000  1.0
  C  C209  1  0.72680000  0.59231000  0.11883000  1.0
  C  C210  1  0.73776000  0.60112000  0.07485000  1.0
  C  C211  1  0.79034000  0.59527000  0.05673000  1.0
  C  C212  1  0.83446000  0.58038000  0.08978000  1.0
  C  C213  1  0.23894000  0.11680000  0.90443000  1.0
  C  C214  1  0.37420000  0.03718000  0.90550000  1.0
  C  C215  1  0.26340000  0.05632000  0.88178000  1.0
  C  C216  1  0.22614000  0.07835000  0.88146000  1.0
  C  C217  1  0.31858000  0.07883000  0.90840000  1.0
  C  C218  1  0.80998000  0.90077000  0.36695000  1.0
  C  C219  1  0.90890000  0.88997000  0.45055000  1.0
  C  C220  1  0.81770000  0.86743000  0.42273000  1.0
  C  C221  1  0.79030000  0.87045000  0.39964000  1.0
  C  C222  1  0.87002000  0.89956000  0.40820000  1.0
  C  C223  1  0.44468000  0.40529000  0.61573000  1.0
  C  C224  1  0.36358000  0.39290000  0.53068000  1.0
  C  C225  1  0.45044000  0.37127000  0.56039000  1.0
  C  C226  1  0.47340000  0.37483000  0.58383000  1.0
  C  C227  1  0.39632000  0.40387000  0.57316000  1.0
  C  C228  1  0.18220000  0.91518000  0.11856000  1.0
  C  C229  1  0.06596000  0.91087000  0.03638000  1.0
  C  C230  1  0.16334000  0.88646000  0.06051000  1.0
  C  C231  1  0.19546000  0.88767000  0.08323000  1.0
  C  C232  1  0.11242000  0.91686000  0.07872000  1.0
  C  C233  1  0.60134000  0.06002000  0.61251000  1.0
  C  C234  1  0.63068000  0.11329000  0.54135000  1.0
  C  C235  1  0.60178000  0.11899000  0.58509000  1.0
  C  C236  1  0.59420000  0.10429000  0.60480000  1.0
  C  C237  1  0.61708000  0.08240000  0.57379000  1.0
  C  C238  1  0.09738000  0.58111000  0.45090000  1.0
  C  C239  1  0.19072000  0.56849000  0.36716000  1.0
  C  C240  1  0.20118000  0.60147000  0.39754000  1.0
  C  C241  1  0.17550000  0.60495000  0.42074000  1.0
  C  C242  1  0.13030000  0.57107000  0.40824000  1.0
  C  C243  1  0.59350000  0.46008000  0.90510000  1.0
  C  C244  1  0.71778000  0.37900000  0.90097000  1.0
  C  C245  1  0.73534000  0.41804000  0.87934000  1.0
  C  C246  1  0.70100000  0.44046000  0.88046000  1.0
  C  C247  1  0.64150000  0.41748000  0.90582000  1.0
  C  C248  1  0.81938000  0.47042000  0.09070000  1.0
  C  C249  1  0.80502000  0.39032000  0.05162000  1.0
  C  C250  1  0.74472000  0.43115000  0.04389000  1.0
  C  C251  1  0.74824000  0.45317000  0.05495000  1.0
  C  C252  1  0.82646000  0.42884000  0.07359000  1.0
  C  C253  1  0.34708000  0.05963000  0.09254000  1.0
  C  C254  1  0.09762000  0.08455000  0.04985000  1.0
  C  C255  1  0.17974000  0.10040000  0.08404000  1.0
  C  C256  1  0.24834000  0.09345000  0.09592000  1.0
  C  C257  1  0.22332000  0.06775000  0.06815000  1.0
  C  C258  1  0.92324000  0.06165000  0.45388000  1.0
  C  C259  1  0.70146000  0.04787000  0.39538000  1.0
  C  C260  1  0.83394000  0.06926000  0.39503000  1.0
  C  C261  1  0.89522000  0.07300000  0.41114000  1.0
  C  C262  1  0.80202000  0.05281000  0.42858000  1.0
  C  C263  1  0.33056000  0.42737000  0.40869000  1.0
  C  C264  1  0.05976000  0.42165000  0.44637000  1.0
  C  C265  1  0.14044000  0.39687000  0.41764000  1.0
  C  C266  1  0.21496000  0.39851000  0.40709000  1.0
  C  C267  1  0.19890000  0.42875000  0.43052000  1.0
  C  C268  1  0.31056000  0.55942000  0.89372000  1.0
  C  C269  1  0.08306000  0.59636000  0.93861000  1.0
  C  C270  1  0.17234000  0.56053000  0.94402000  1.0
  C  C271  1  0.23516000  0.55032000  0.93165000  1.0
  C  C272  1  0.19472000  0.58140000  0.91229000  1.0
  C  C273  1  0.82616000  0.89206000  0.93184000  1.0
  C  C274  1  0.61410000  0.93562000  0.88623000  1.0
  C  C275  1  0.69870000  0.94402000  0.92261000  1.0
  C  C276  1  0.75656000  0.93186000  0.93536000  1.0
  C  C277  1  0.71996000  0.91009000  0.90548000  1.0
  C  C278  1  0.41018000  0.93422000  0.58773000  1.0
  C  C279  1  0.20462000  0.88419000  0.54632000  1.0
  C  C280  1  0.27540000  0.92310000  0.53788000  1.0
  C  C281  1  0.33182000  0.93696000  0.54941000  1.0
  C  C282  1  0.31018000  0.90530000  0.57045000  1.0
  C  C283  1  0.81680000  0.58042000  0.55300000  1.0
  C  C284  1  0.59168000  0.55517000  0.60605000  1.0
  C  C285  1  0.63520000  0.54599000  0.56378000  1.0
  C  C286  1  0.69664000  0.55331000  0.54897000  1.0
  C  C287  1  0.71096000  0.57032000  0.58329000  1.0
  Cd  Cd288  1  0.87712000  0.37601000  0.95380000  1.0
  Cd  Cd289  1  0.36268000  0.96150000  0.11569000  1.0
  Cd  Cd290  1  0.86502000  0.12261000  0.53247000  1.0
  Cd  Cd291  1  0.36998000  0.52296000  0.37821000  1.0
  Cd  Cd292  1  0.07062000  0.11705000  0.95477000  1.0
  Cd  Cd293  1  0.64338000  0.95159000  0.36961000  1.0
  Cd  Cd294  1  0.13356000  0.37460000  0.53297000  1.0
  Cd  Cd295  1  0.59088000  0.53462000  0.12851000  1.0
  Cd  Cd296  1  0.08680000  0.61873000  0.03694000  1.0
  Cd  Cd297  1  0.56424000  0.03256000  0.86287000  1.0
  Cd  Cd298  1  0.12666000  0.86115000  0.45084000  1.0
  Cd  Cd299  1  0.61290000  0.45536000  0.62052000  1.0
  Cd  Cd300  1  0.86734000  0.87204000  0.02992000  1.0
  Cd  Cd301  1  0.38232000  0.03242000  0.60995000  1.0
  Cd  Cd302  1  0.88032000  0.60973000  0.45822000  1.0
  Cd  Cd303  1  0.38818000  0.46426000  0.86917000  1.0
  H  H304  1  0.91592000  0.39106000  0.01055000  1.0
  H  H305  1  0.70310000  0.36627000  0.97928000  1.0
  H  H306  1  0.02502000  0.34123000  0.97405000  1.0
  H  H307  1  0.78204000  0.32528000  0.96368000  1.0
  H  H308  1  0.67290000  0.37301000  0.02405000  1.0
  H  H309  1  0.84812000  0.28694000  0.98006000  1.0
  H  H310  1  0.42216000  0.01223000  0.09055000  1.0
  H  H311  1  0.22280000  0.99929000  0.13431000  1.0
  H  H312  1  0.52392000  0.97675000  0.14798000  1.0
  H  H313  1  0.28294000  0.97161000  0.16851000  1.0
  H  H314  1  0.21844000  0.04403000  0.12309000  1.0
  H  H315  1  0.36170000  0.98466000  0.20598000  1.0
  H  H316  1  0.87472000  0.07179000  0.50341000  1.0
  H  H317  1  0.92904000  0.14025000  0.47730000  1.0
  H  H318  1  0.03110000  0.15511000  0.52954000  1.0
  H  H319  1  0.79924000  0.17224000  0.50628000  1.0
  H  H320  1  0.95314000  0.11099000  0.44277000  1.0
  H  H321  1  0.88862000  0.20840000  0.49602000  1.0
  H  H322  1  0.40170000  0.47531000  0.41245000  1.0
  H  H323  1  0.25780000  0.48205000  0.35132000  1.0
  H  H324  1  0.43250000  0.54995000  0.32925000  1.0
  H  H325  1  0.45306000  0.47743000  0.34741000  1.0
  H  H326  1  0.24132000  0.43863000  0.36632000  1.0
  H  H327  1  0.52272000  0.48276000  0.30664000  1.0
  H  H328  1  0.00930000  0.09241000  0.00550000  1.0
  H  H329  1  0.23222000  0.12268000  0.98886000  1.0
  H  H330  1  0.93106000  0.15477000  0.97525000  1.0
  H  H331  1  0.17968000  0.16380000  0.96943000  1.0
  H  H332  1  0.24212000  0.10751000  0.03224000  1.0
  H  H333  1  0.12350000  0.20306000  0.98699000  1.0
  H  H334  1  0.60400000  0.00409000  0.39566000  1.0
  H  H335  1  0.80120000  0.98334000  0.35407000  1.0
  H  H336  1  0.49208000  0.97438000  0.33767000  1.0
  H  H337  1  0.73038000  0.96163000  0.31768000  1.0
  H  H338  1  0.82566000  0.02714000  0.36629000  1.0
  H  H339  1  0.65964000  0.97939000  0.28070000  1.0
  H  H340  1  0.17212000  0.40645000  0.48395000  1.0
  H  H341  1  0.95754000  0.37417000  0.50589000  1.0
  H  H342  1  0.99014000  0.33415000  0.53653000  1.0
  H  H343  1  0.19880000  0.33320000  0.49478000  1.0
  H  H344  1  0.92752000  0.39591000  0.46619000  1.0
  H  H345  1  0.12194000  0.29421000  0.48531000  1.0
  H  H346  1  0.76186000  0.51864000  0.10245000  1.0
  H  H347  1  0.57570000  0.47551000  0.12853000  1.0
  H  H348  1  0.47760000  0.50369000  0.16620000  1.0
  H  H349  1  0.71696000  0.52532000  0.17334000  1.0
  H  H350  1  0.68228000  0.44701000  0.11105000  1.0
  H  H351  1  0.68102000  0.50200000  0.21177000  1.0
  H  H352  1  0.01872000  0.59302000  0.98741000  1.0
  H  H353  1  0.20816000  0.64153000  0.99601000  1.0
  H  H354  1  0.92226000  0.65220000  0.02832000  1.0
  H  H355  1  0.16412000  0.67222000  0.03094000  1.0
  H  H356  1  0.20380000  0.63043000  0.95119000  1.0
  H  H357  1  0.08310000  0.71098000  0.02517000  1.0
  H  H358  1  0.52120000  0.98024000  0.88733000  1.0
  H  H359  1  0.71898000  0.99963000  0.84533000  1.0
  H  H360  1  0.62286000  0.04431000  0.80723000  1.0
  H  H361  1  0.45022000  0.99556000  0.83160000  1.0
  H  H362  1  0.73858000  0.95523000  0.85687000  1.0
  H  H363  1  0.45296000  0.99210000  0.78555000  1.0
  H  H364  1  0.09176000  0.88047000  0.50612000  1.0
  H  H365  1  0.30392000  0.85389000  0.47599000  1.0
  H  H366  1  0.02452000  0.82325000  0.48534000  1.0
  H  H367  1  0.23802000  0.81268000  0.44729000  1.0
  H  H368  1  0.33630000  0.86471000  0.51987000  1.0
  H  H369  1  0.20888000  0.77332000  0.46961000  1.0
  H  H370  1  0.68040000  0.50938000  0.60671000  1.0
  H  H371  1  0.45086000  0.48842000  0.62887000  1.0
  H  H372  1  0.53998000  0.43995000  0.67334000  1.0
  H  H373  1  0.71934000  0.48994000  0.65720000  1.0
  H  H374  1  0.44476000  0.53395000  0.62144000  1.0
  H  H375  1  0.70498000  0.48937000  0.70323000  1.0
  H  H376  1  0.92138000  0.89057000  0.97608000  1.0
  H  H377  1  0.70156000  0.86216000  0.99871000  1.0
  H  H378  1  0.01054000  0.83573000  0.00950000  1.0
  H  H379  1  0.76722000  0.82182000  0.02183000  1.0
  H  H380  1  0.68652000  0.87183000  0.95373000  1.0
  H  H381  1  0.82898000  0.78257000  0.00632000  1.0
  H  H382  1  0.46920000  0.98373000  0.58763000  1.0
  H  H383  1  0.25442000  0.98986000  0.62604000  1.0
  H  H384  1  0.42756000  0.00421000  0.66023000  1.0
  H  H385  1  0.23724000  0.05126000  0.64654000  1.0
  H  H386  1  0.27040000  0.94527000  0.61517000  1.0
  H  H387  1  0.22292000  0.03768000  0.69041000  1.0
  H  H388  1  0.91712000  0.58289000  0.51014000  1.0
  H  H389  1  0.71648000  0.62290000  0.48922000  1.0
  H  H390  1  0.86896000  0.66505000  0.43700000  1.0
  H  H391  1  0.92142000  0.64261000  0.50687000  1.0
  H  H392  1  0.69028000  0.60883000  0.53255000  1.0
  H  H393  1  0.92816000  0.68866000  0.50691000  1.0
  H  H394  1  0.42106000  0.51847000  0.89161000  1.0
  H  H395  1  0.21614000  0.49111000  0.85792000  1.0
  H  H396  1  0.51418000  0.49603000  0.83552000  1.0
  H  H397  1  0.29156000  0.46616000  0.81777000  1.0
  H  H398  1  0.18380000  0.53477000  0.86957000  1.0
  H  H399  1  0.34266000  0.48779000  0.78000000  1.0
  H  H400  1  0.95690000  0.20397000  0.01308000  1.0
  H  H401  1  0.97050000  0.22179000  0.94550000  1.0
  H  H402  1  0.00450000  0.26842000  0.94339000  1.0
  H  H403  1  0.98410000  0.24855000  0.01579000  1.0
  H  H404  1  0.07720000  0.29625000  0.98237000  1.0
  H  H405  1  0.01848000  0.29238000  0.00908000  1.0
  H  H406  1  0.89028000  0.19907000  0.98832000  1.0
  H  H407  1  0.53640000  0.00972000  0.19847000  1.0
  H  H408  1  0.51148000  0.94327000  0.21925000  1.0
  H  H409  1  0.49126000  0.94345000  0.26665000  1.0
  H  H410  1  0.51792000  0.01462000  0.24329000  1.0
  H  H411  1  0.43286000  0.98497000  0.29432000  1.0
  H  H412  1  0.49702000  0.01011000  0.28813000  1.0
  H  H413  1  0.58900000  0.98257000  0.19199000  1.0
  H  H414  1  0.95078000  0.28779000  0.49131000  1.0
  H  H415  1  0.02252000  0.27093000  0.55557000  1.0
  H  H416  1  0.06494000  0.22485000  0.55494000  1.0
  H  H417  1  0.99942000  0.24522000  0.48511000  1.0
  H  H418  1  0.10598000  0.19533000  0.51859000  1.0
  H  H419  1  0.06802000  0.20350000  0.48931000  1.0
  H  H420  1  0.92148000  0.29432000  0.52164000  1.0
  H  H421  1  0.56050000  0.46957000  0.22022000  1.0
  H  H422  1  0.38098000  0.51258000  0.22074000  1.0
  H  H423  1  0.38348000  0.53760000  0.26144000  1.0
  H  H424  1  0.59576000  0.49718000  0.25706000  1.0
  H  H425  1  0.51224000  0.55039000  0.28903000  1.0
  H  H426  1  0.59144000  0.52823000  0.29080000  1.0
  H  H427  1  0.46742000  0.47542000  0.20482000  1.0
  H  H428  1  0.05386000  0.78638000  0.00720000  1.0
  H  H429  1  0.93682000  0.75541000  0.95882000  1.0
  H  H430  1  0.89156000  0.71208000  0.97371000  1.0
  H  H431  1  0.97788000  0.75076000  0.03299000  1.0
  H  H432  1  0.85796000  0.69487000  0.01744000  1.0
  H  H433  1  0.90070000  0.71094000  0.04241000  1.0
  H  H434  1  0.01720000  0.79070000  0.97764000  1.0
  H  H435  1  0.60064000  0.00748000  0.75607000  1.0
  H  H436  1  0.45074000  0.06088000  0.75731000  1.0
  H  H437  1  0.33116000  0.05084000  0.72722000  1.0
  H  H438  1  0.48794000  0.99189000  0.72924000  1.0
  H  H439  1  0.28238000  0.00207000  0.71506000  1.0
  H  H440  1  0.36720000  0.98619000  0.70240000  1.0
  H  H441  1  0.60394000  0.03931000  0.76034000  1.0
  H  H442  1  0.84208000  0.71937000  0.46817000  1.0
  H  H443  1  0.06570000  0.70001000  0.46116000  1.0
  H  H444  1  0.15640000  0.73385000  0.48101000  1.0
  H  H445  1  0.91550000  0.75583000  0.48453000  1.0
  H  H446  1  0.11438000  0.76933000  0.51225000  1.0
  H  H447  1  0.01528000  0.78203000  0.50816000  1.0
  H  H448  1  0.89654000  0.71151000  0.44155000  1.0
  H  H449  1  0.55474000  0.51453000  0.79340000  1.0
  H  H450  1  0.40534000  0.51479000  0.74182000  1.0
  H  H451  1  0.45598000  0.48543000  0.70737000  1.0
  H  H452  1  0.60252000  0.47580000  0.76791000  1.0
  H  H453  1  0.54944000  0.44008000  0.72023000  1.0
  H  H454  1  0.64368000  0.45127000  0.73155000  1.0
  H  H455  1  0.46458000  0.52876000  0.78318000  1.0
  H  H456  1  0.26976000  0.39332000  0.87910000  1.0
  H  H457  1  0.08954000  0.43506000  0.86717000  1.0
  H  H458  1  0.00268000  0.43848000  0.90716000  1.0
  H  H459  1  0.21154000  0.39909000  0.92240000  1.0
  H  H460  1  0.06170000  0.43383000  0.95495000  1.0
  H  H461  1  0.12252000  0.40715000  0.95838000  1.0
  H  H462  1  0.21344000  0.40540000  0.85484000  1.0
  H  H463  1  0.59072000  0.96005000  0.07490000  1.0
  H  H464  1  0.46438000  0.90539000  0.05353000  1.0
  H  H465  1  0.55324000  0.86615000  0.05987000  1.0
  H  H466  1  0.68106000  0.92534000  0.08655000  1.0
  H  H467  1  0.68334000  0.85666000  0.08574000  1.0
  H  H468  1  0.73530000  0.88190000  0.09833000  1.0
  H  H469  1  0.52054000  0.95339000  0.05136000  1.0
  H  H470  1  0.20440000  0.04393000  0.55169000  1.0
  H  H471  1  0.26844000  0.10846000  0.56857000  1.0
  H  H472  1  0.13866000  0.13197000  0.58373000  1.0
  H  H473  1  0.07612000  0.05987000  0.57240000  1.0
  H  H474  1  0.99838000  0.11698000  0.60165000  1.0
  H  H475  1  0.97134000  0.08614000  0.59532000  1.0
  H  H476  1  0.27886000  0.06545000  0.54420000  1.0
  H  H477  1  0.55998000  0.52339000  0.43415000  1.0
  H  H478  1  0.46994000  0.58671000  0.44074000  1.0
  H  H479  1  0.57976000  0.61855000  0.42677000  1.0
  H  H480  1  0.66760000  0.54939000  0.41254000  1.0
  H  H481  1  0.70724000  0.61454000  0.39723000  1.0
  H  H482  1  0.74802000  0.58471000  0.39380000  1.0
  H  H483  1  0.48080000  0.53874000  0.44960000  1.0
  H  H484  1  0.81840000  0.09186000  0.95109000  1.0
  H  H485  1  0.95418000  0.06034000  0.90355000  1.0
  H  H486  1  0.87706000  0.06185000  0.86172000  1.0
  H  H487  1  0.73468000  0.09607000  0.91361000  1.0
  H  H488  1  0.75166000  0.08646000  0.84579000  1.0
  H  H489  1  0.69310000  0.10233000  0.86768000  1.0
  H  H490  1  0.87132000  0.06364000  0.95015000  1.0
  H  H491  1  0.40636000  0.95399000  0.40574000  1.0
  H  H492  1  0.51836000  0.89552000  0.42445000  1.0
  H  H493  1  0.42010000  0.85876000  0.41595000  1.0
  H  H494  1  0.30596000  0.92216000  0.39377000  1.0
  H  H495  1  0.28830000  0.85473000  0.38756000  1.0
  H  H496  1  0.23580000  0.88224000  0.38129000  1.0
  H  H497  1  0.46902000  0.94484000  0.43030000  1.0
  H  H498  1  0.04846000  0.39572000  0.60564000  1.0
  H  H499  1  0.86106000  0.36850000  0.57498000  1.0
  H  H500  1  0.75344000  0.40328000  0.56864000  1.0
  H  H501  1  0.96448000  0.43374000  0.59643000  1.0
  H  H502  1  0.79574000  0.45374000  0.56235000  1.0
  H  H503  1  0.85388000  0.46355000  0.58785000  1.0
  H  H504  1  0.00016000  0.36734000  0.60201000  1.0
  H  H505  1  0.32432000  0.54023000  0.12234000  1.0
  H  H506  1  0.42650000  0.55084000  0.06039000  1.0
  H  H507  1  0.38294000  0.59410000  0.04487000  1.0
  H  H508  1  0.28058000  0.58291000  0.11281000  1.0
  H  H509  1  0.32494000  0.63249000  0.06906000  1.0
  H  H510  1  0.26716000  0.62613000  0.09578000  1.0
  H  H511  1  0.34936000  0.52273000  0.09609000  1.0
  H  H512  1  0.77214000  0.59325000  0.13335000  1.0
  H  H513  1  0.68236000  0.61101000  0.07304000  1.0
  H  H514  1  0.78428000  0.59972000  0.03798000  1.0
  H  H515  1  0.87062000  0.57040000  0.10239000  1.0
  H  H516  1  0.89546000  0.56342000  0.03629000  1.0
  H  H517  1  0.94468000  0.55676000  0.06409000  1.0
  H  H518  1  0.68886000  0.60855000  0.12052000  1.0
  H  H519  1  0.39348000  0.03908000  0.92444000  1.0
  H  H520  1  0.24924000  0.04108000  0.87062000  1.0
  H  H521  1  0.17696000  0.08371000  0.87005000  1.0
  H  H522  1  0.35726000  0.08487000  0.92272000  1.0
  H  H523  1  0.21682000  0.12654000  0.88840000  1.0
  H  H524  1  0.29196000  0.12630000  0.91179000  1.0
  H  H525  1  0.34166000  0.01991000  0.90397000  1.0
  H  H526  1  0.91278000  0.90947000  0.45426000  1.0
  H  H527  1  0.80232000  0.85303000  0.43482000  1.0
  H  H528  1  0.74924000  0.85889000  0.39013000  1.0
  H  H529  1  0.90480000  0.91584000  0.40665000  1.0
  H  H530  1  0.79152000  0.88660000  0.35414000  1.0
  H  H531  1  0.86618000  0.90935000  0.36065000  1.0
  H  H532  1  0.87480000  0.88155000  0.46540000  1.0
  H  H533  1  0.36906000  0.41192000  0.52509000  1.0
  H  H534  1  0.46712000  0.35640000  0.54904000  1.0
  H  H535  1  0.51132000  0.36325000  0.59443000  1.0
  H  H536  1  0.36074000  0.42006000  0.57380000  1.0
  H  H537  1  0.45786000  0.39090000  0.62889000  1.0
  H  H538  1  0.38700000  0.41414000  0.62026000  1.0
  H  H539  1  0.39344000  0.38148000  0.51706000  1.0
  H  H540  1  0.05112000  0.93026000  0.03615000  1.0
  H  H541  1  0.17728000  0.87335000  0.04690000  1.0
  H  H542  1  0.23950000  0.87570000  0.09086000  1.0
  H  H543  1  0.07758000  0.93282000  0.08227000  1.0
  H  H544  1  0.19884000  0.89986000  0.13022000  1.0
  H  H545  1  0.12928000  0.92460000  0.12609000  1.0
  H  H546  1  0.10284000  0.90711000  0.02027000  1.0
  H  H547  1  0.60876000  0.09956000  0.52853000  1.0
  H  H548  1  0.59820000  0.13832000  0.58492000  1.0
  H  H549  1  0.58294000  0.10986000  0.62303000  1.0
  H  H550  1  0.62808000  0.06692000  0.56263000  1.0
  H  H551  1  0.61528000  0.06489000  0.63134000  1.0
  H  H552  1  0.64528000  0.04664000  0.60585000  1.0
  H  H553  1  0.59836000  0.13036000  0.53807000  1.0
  H  H554  1  0.13688000  0.55863000  0.36088000  1.0
  H  H555  1  0.23974000  0.61321000  0.38731000  1.0
  H  H556  1  0.18978000  0.61997000  0.43217000  1.0
  H  H557  1  0.10180000  0.55367000  0.40802000  1.0
  H  H558  1  0.13560000  0.58955000  0.46482000  1.0
  H  H559  1  0.09422000  0.56153000  0.45430000  1.0
  H  H560  1  0.20774000  0.58205000  0.35353000  1.0
  H  H561  1  0.66310000  0.36942000  0.90701000  1.0
  H  H562  1  0.78510000  0.41269000  0.86815000  1.0
  H  H563  1  0.71856000  0.45607000  0.87028000  1.0
  H  H564  1  0.60218000  0.41140000  0.91998000  1.0
  H  H565  1  0.62594000  0.47715000  0.90190000  1.0
  H  H566  1  0.58044000  0.45851000  0.92454000  1.0
  H  H567  1  0.74098000  0.36958000  0.88489000  1.0
  H  H568  1  0.86566000  0.38488000  0.05779000  1.0
  H  H569  1  0.70710000  0.42645000  0.02884000  1.0
  H  H570  1  0.71488000  0.46904000  0.05006000  1.0
  H  H571  1  0.86730000  0.42162000  0.08680000  1.0
  H  H572  1  0.84918000  0.48539000  0.08110000  1.0
  H  H573  1  0.86132000  0.46341000  0.10446000  1.0
  H  H574  1  0.75918000  0.38068000  0.06232000  1.0
  H  H575  1  0.07726000  0.06600000  0.04608000  1.0
  H  H576  1  0.14394000  0.11612000  0.08769000  1.0
  H  H577  1  0.27670000  0.10269000  0.11066000  1.0
  H  H578  1  0.22852000  0.05238000  0.05647000  1.0
  H  H579  1  0.38270000  0.06992000  0.10582000  1.0
  H  H580  1  0.38478000  0.05664000  0.07642000  1.0
  H  H581  1  0.04540000  0.09399000  0.05778000  1.0
  H  H582  1  0.65300000  0.04746000  0.40902000  1.0
  H  H583  1  0.83246000  0.07500000  0.37655000  1.0
  H  H584  1  0.95108000  0.08219000  0.40768000  1.0
  H  H585  1  0.76940000  0.04276000  0.44197000  1.0
  H  H586  1  0.98726000  0.05978000  0.44878000  1.0
  H  H587  1  0.90500000  0.04607000  0.46500000  1.0
  H  H588  1  0.68236000  0.06030000  0.38096000  1.0
  H  H589  1  0.06416000  0.44035000  0.45303000  1.0
  H  H590  1  0.09638000  0.38297000  0.41476000  1.0
  H  H591  1  0.24068000  0.38609000  0.39439000  1.0
  H  H592  1  0.20994000  0.44530000  0.44004000  1.0
  H  H593  1  0.36292000  0.41359000  0.39812000  1.0
  H  H594  1  0.36518000  0.43139000  0.42520000  1.0
  H  H595  1  0.00542000  0.42042000  0.43495000  1.0
  H  H596  1  0.07510000  0.61010000  0.92444000  1.0
  H  H597  1  0.14708000  0.55432000  0.96073000  1.0
  H  H598  1  0.26876000  0.53460000  0.93683000  1.0
  H  H599  1  0.19030000  0.59529000  0.89885000  1.0
  H  H600  1  0.37040000  0.56172000  0.90213000  1.0
  H  H601  1  0.30398000  0.57263000  0.87898000  1.0
  H  H602  1  0.02632000  0.58613000  0.94049000  1.0
  H  H603  1  0.61610000  0.92207000  0.87169000  1.0
  H  H604  1  0.67416000  0.96143000  0.92685000  1.0
  H  H605  1  0.78672000  0.93799000  0.95136000  1.0
  H  H606  1  0.71536000  0.89521000  0.89315000  1.0
  H  H607  1  0.88790000  0.89945000  0.93105000  1.0
  H  H608  1  0.82186000  0.87652000  0.91950000  1.0
  H  H609  1  0.55464000  0.93465000  0.89512000  1.0
  H  H610  1  0.21576000  0.86896000  0.55867000  1.0
  H  H611  1  0.24526000  0.92735000  0.52127000  1.0
  H  H612  1  0.35480000  0.95407000  0.54352000  1.0
  H  H613  1  0.31272000  0.89239000  0.58488000  1.0
  H  H614  1  0.46896000  0.93756000  0.57900000  1.0
  H  H615  1  0.41752000  0.92053000  0.60198000  1.0
  H  H616  1  0.14318000  0.89109000  0.54961000  1.0
  H  H617  1  0.53726000  0.56605000  0.60256000  1.0
  H  H618  1  0.58668000  0.53403000  0.55912000  1.0
  H  H619  1  0.70626000  0.54788000  0.53062000  1.0
  H  H620  1  0.73454000  0.58142000  0.59751000  1.0
  H  H621  1  0.86548000  0.56691000  0.55184000  1.0
  H  H622  1  0.83558000  0.59431000  0.56607000  1.0
  H  H623  1  0.62212000  0.56283000  0.62199000  1.0
  N  N624  1  0.82236000  0.37812000  0.98738000  1.0
  N  N625  1  0.72798000  0.37591000  0.01569000  1.0
  N  N626  1  0.89884000  0.34114000  0.96601000  1.0
  N  N627  1  0.87750000  0.30307000  0.97666000  1.0
  N  N628  1  0.33018000  0.99762000  0.11325000  1.0
  N  N629  1  0.26198000  0.03183000  0.11758000  1.0
  N  N630  1  0.39616000  0.97187000  0.15035000  1.0
  N  N631  1  0.38636000  0.98130000  0.18916000  1.0
  N  N632  1  0.89512000  0.10946000  0.49815000  1.0
  N  N633  1  0.93278000  0.10630000  0.45978000  1.0
  N  N634  1  0.90552000  0.15623000  0.52086000  1.0
  N  N635  1  0.90752000  0.19285000  0.50469000  1.0
  N  N636  1  0.33846000  0.48672000  0.38086000  1.0
  N  N637  1  0.27766000  0.45168000  0.37410000  1.0
  N  N638  1  0.42542000  0.51496000  0.34526000  1.0
  N  N639  1  0.49274000  0.49614000  0.31611000  1.0
  N  N640  1  0.11122000  0.10970000  0.98947000  1.0
  N  N641  1  0.19138000  0.10631000  0.02140000  1.0
  N  N642  1  0.05804000  0.15140000  0.96928000  1.0
  N  N643  1  0.08982000  0.18801000  0.98239000  1.0
  N  N644  1  0.69126000  0.98599000  0.37381000  1.0
  N  N645  1  0.77604000  0.01689000  0.37115000  1.0
  N  N646  1  0.61708000  0.96509000  0.33548000  1.0
  N  N647  1  0.63288000  0.97611000  0.29727000  1.0
  N  N648  1  0.07826000  0.38668000  0.50156000  1.0
  N  N649  1  0.98338000  0.39495000  0.47453000  1.0
  N  N650  1  0.10284000  0.34101000  0.51913000  1.0
  N  N651  1  0.10432000  0.30727000  0.49758000  1.0
  N  N652  1  0.65468000  0.50400000  0.11817000  1.0
  N  N653  1  0.68612000  0.46565000  0.11151000  1.0
  N  N654  1  0.59604000  0.51843000  0.16226000  1.0
  N  N655  1  0.64240000  0.50537000  0.19747000  1.0
  N  N656  1  0.10674000  0.61824000  0.99996000  1.0
  N  N657  1  0.16424000  0.62431000  0.96430000  1.0
  N  N658  1  0.05102000  0.65402000  0.03007000  1.0
  N  N659  1  0.05908000  0.69377000  0.02589000  1.0
  N  N660  1  0.60956000  0.99776000  0.86541000  1.0
  N  N661  1  0.69010000  0.96597000  0.86175000  1.0
  N  N662  1  0.54160000  0.02226000  0.82745000  1.0
  N  N663  1  0.48828000  0.00361000  0.79579000  1.0
  N  N664  1  0.18452000  0.86587000  0.48369000  1.0
  N  N665  1  0.28060000  0.86656000  0.51158000  1.0
  N  N666  1  0.12886000  0.82568000  0.46284000  1.0
  N  N667  1  0.17226000  0.78844000  0.46968000  1.0
  N  N668  1  0.57428000  0.49087000  0.61841000  1.0
  N  N669  1  0.49520000  0.52314000  0.61917000  1.0
  N  N670  1  0.62582000  0.46357000  0.65693000  1.0
  N  N671  1  0.67112000  0.47928000  0.69120000  1.0
  N  N672  1  0.82176000  0.87535000  0.99522000  1.0
  N  N673  1  0.73800000  0.87451000  0.96399000  1.0
  N  N674  1  0.88496000  0.83680000  0.01825000  1.0
  N  N675  1  0.86000000  0.79856000  0.00892000  1.0
  N  N676  1  0.36734000  0.99512000  0.60837000  1.0
  N  N677  1  0.31130000  0.95883000  0.61119000  1.0
  N  N678  1  0.34190000  0.02891000  0.64539000  1.0
  N  N679  1  0.26852000  0.03254000  0.67871000  1.0
  N  N680  1  0.82866000  0.60434000  0.49204000  1.0
  N  N681  1  0.74132000  0.60504000  0.52244000  1.0
  N  N682  1  0.88970000  0.64557000  0.46971000  1.0
  N  N683  1  0.91366000  0.67798000  0.49222000  1.0
  N  N684  1  0.33176000  0.49739000  0.87349000  1.0
  N  N685  1  0.23802000  0.52598000  0.87264000  1.0
  N  N686  1  0.40086000  0.47767000  0.83438000  1.0
  N  N687  1  0.37322000  0.48657000  0.79624000  1.0
  N  N688  1  0.97280000  0.22742000  0.98375000  1.0
  N  N689  1  0.99940000  0.26643000  0.98196000  1.0
  N  N690  1  0.51788000  0.98166000  0.22333000  1.0
  N  N691  1  0.50260000  0.98178000  0.26294000  1.0
  N  N692  1  0.00312000  0.26575000  0.51771000  1.0
  N  N693  1  0.03780000  0.22727000  0.51723000  1.0
  N  N694  1  0.49510000  0.49913000  0.23305000  1.0
  N  N695  1  0.49726000  0.52003000  0.26695000  1.0
  N  N696  1  0.96796000  0.76089000  0.99594000  1.0
  N  N697  1  0.93030000  0.72473000  0.00835000  1.0
  N  N698  1  0.49372000  0.02577000  0.74748000  1.0
  N  N699  1  0.39456000  0.01751000  0.72212000  1.0
  N  N700  1  0.96770000  0.72353000  0.47042000  1.0
  N  N701  1  0.04380000  0.75223000  0.48621000  1.0
  N  N702  1  0.50338000  0.49972000  0.76207000  1.0
  N  N703  1  0.54628000  0.47538000  0.73321000  1.0
  N  N704  1  0.17030000  0.41455000  0.88933000  1.0
  N  N705  1  0.09812000  0.41747000  0.92269000  1.0
  N  N706  1  0.56416000  0.92340000  0.07033000  1.0
  N  N707  1  0.63824000  0.89071000  0.07554000  1.0
  N  N708  1  0.18900000  0.07796000  0.56783000  1.0
  N  N709  1  0.08098000  0.09752000  0.58046000  1.0
  N  N710  1  0.55656000  0.56070000  0.42857000  1.0
  N  N711  1  0.64764000  0.58723000  0.41668000  1.0
  N  N712  1  0.85138000  0.07987000  0.91664000  1.0
  N  N713  1  0.78666000  0.08085000  0.88183000  1.0
  N  N714  1  0.42280000  0.91666000  0.40918000  1.0
  N  N715  1  0.34076000  0.88604000  0.40224000  1.0
  N  N716  1  0.93588000  0.39706000  0.58835000  1.0
  N  N717  1  0.84614000  0.42606000  0.58312000  1.0
  N  N718  1  0.35592000  0.56002000  0.09147000  1.0
  N  N719  1  0.31934000  0.59604000  0.07849000  1.0
  N  N720  1  0.76608000  0.59188000  0.09547000  1.0
  N  N721  1  0.85072000  0.58236000  0.06624000  1.0
  N  N722  1  0.32078000  0.05674000  0.89876000  1.0
  N  N723  1  0.26094000  0.09229000  0.89818000  1.0
  N  N724  1  0.86706000  0.88580000  0.42799000  1.0
  N  N725  1  0.82318000  0.89060000  0.39070000  1.0
  N  N726  1  0.40256000  0.38957000  0.55383000  1.0
  N  N727  1  0.43936000  0.39526000  0.59166000  1.0
  N  N728  1  0.11178000  0.90485000  0.05782000  1.0
  N  N729  1  0.16338000  0.90674000  0.09447000  1.0
  N  N730  1  0.61540000  0.10514000  0.56575000  1.0
  N  N731  1  0.60386000  0.08145000  0.59757000  1.0
  N  N732  1  0.17220000  0.58032000  0.38978000  1.0
  N  N733  1  0.13120000  0.58585000  0.42726000  1.0
  N  N734  1  0.69742000  0.40374000  0.89513000  1.0
  N  N735  1  0.64232000  0.43994000  0.89704000  1.0
  N  N736  1  0.79502000  0.41608000  0.05539000  1.0
  N  N737  1  0.79904000  0.45153000  0.07363000  1.0
  N  N738  1  0.16428000  0.08417000  0.06681000  1.0
  N  N739  1  0.27510000  0.07299000  0.08593000  1.0
  N  N740  1  0.77582000  0.05666000  0.40607000  1.0
  N  N741  1  0.87462000  0.06282000  0.43214000  1.0
  N  N742  1  0.13082000  0.41587000  0.43223000  1.0
  N  N743  1  0.25102000  0.41855000  0.41518000  1.0
  N  N744  1  0.14758000  0.58002000  0.93184000  1.0
  N  N745  1  0.24840000  0.56339000  0.91173000  1.0
  N  N746  1  0.67684000  0.93041000  0.90375000  1.0
  N  N747  1  0.76914000  0.91057000  0.92461000  1.0
  N  N748  1  0.26296000  0.90316000  0.55100000  1.0
  N  N749  1  0.35300000  0.92575000  0.56983000  1.0
  N  N750  1  0.64536000  0.55640000  0.58537000  1.0
  N  N751  1  0.74330000  0.56876000  0.56124000  1.0
  O  O752  1  0.83604000  0.36248000  0.92142000  1.0
  O  O753  1  0.77760000  0.39256000  0.93890000  1.0
  O  O754  1  0.99476000  0.37895000  0.94190000  1.0
  O  O755  1  0.93490000  0.40825000  0.96031000  1.0
  O  O756  1  0.31742000  0.92947000  0.12885000  1.0
  O  O757  1  0.24760000  0.95226000  0.10512000  1.0
  O  O758  1  0.40526000  0.96276000  0.08084000  1.0
  O  O759  1  0.47684000  0.94773000  0.10970000  1.0
  O  O760  1  0.75326000  0.13764000  0.53925000  1.0
  O  O761  1  0.76772000  0.09943000  0.53331000  1.0
  O  O762  1  0.90808000  0.12992000  0.56655000  1.0
  O  O763  1  0.94386000  0.09786000  0.54727000  1.0
  O  O764  1  0.33230000  0.55626000  0.36589000  1.0
  O  O765  1  0.24810000  0.53009000  0.37994000  1.0
  O  O766  1  0.48148000  0.53470000  0.38984000  1.0
  O  O767  1  0.38778000  0.52474000  0.41498000  1.0
  O  O768  1  0.11568000  0.13172000  0.92339000  1.0
  O  O769  1  0.17472000  0.10193000  0.94123000  1.0
  O  O770  1  0.00876000  0.08482000  0.95465000  1.0
  O  O771  1  0.95252000  0.11791000  0.94287000  1.0
  O  O772  1  0.68388000  0.91988000  0.35438000  1.0
  O  O773  1  0.74998000  0.93773000  0.38278000  1.0
  O  O774  1  0.59172000  0.95388000  0.40333000  1.0
  O  O775  1  0.52604000  0.93940000  0.37300000  1.0
  O  O776  1  0.25296000  0.36402000  0.53484000  1.0
  O  O777  1  0.21918000  0.40137000  0.53024000  1.0
  O  O778  1  0.10440000  0.36278000  0.56710000  1.0
  O  O779  1  0.05564000  0.39588000  0.55256000  1.0
  O  O780  1  0.64392000  0.56503000  0.14287000  1.0
  O  O781  1  0.65810000  0.55560000  0.10535000  1.0
  O  O782  1  0.47466000  0.54610000  0.13520000  1.0
  O  O783  1  0.50576000  0.52661000  0.10274000  1.0
  O  O784  1  0.14224000  0.62975000  0.06834000  1.0
  O  O785  1  0.20488000  0.60822000  0.04183000  1.0
  O  O786  1  0.97742000  0.61181000  0.05345000  1.0
  O  O787  1  0.04484000  0.58381000  0.03545000  1.0
  O  O788  1  0.67370000  0.04526000  0.87507000  1.0
  O  O789  1  0.59734000  0.06666000  0.85188000  1.0
  O  O790  1  0.44368000  0.04106000  0.86672000  1.0
  O  O791  1  0.51614000  0.02947000  0.89695000  1.0
  O  O792  1  0.16620000  0.85035000  0.41728000  1.0
  O  O793  1  0.21404000  0.88209000  0.43474000  1.0
  O  O794  1  0.00582000  0.85769000  0.44241000  1.0
  O  O795  1  0.05390000  0.89038000  0.45796000  1.0
  O  O796  1  0.73346000  0.44623000  0.61877000  1.0
  O  O797  1  0.66794000  0.45885000  0.58748000  1.0
  O  O798  1  0.57500000  0.42100000  0.62897000  1.0
  O  O799  1  0.50370000  0.44453000  0.60635000  1.0
  O  O800  1  0.82640000  0.85943000  0.06266000  1.0
  O  O801  1  0.76346000  0.88750000  0.04331000  1.0
  O  O802  1  0.98628000  0.87395000  0.04097000  1.0
  O  O803  1  0.92452000  0.90477000  0.02599000  1.0
  O  O804  1  0.28694000  0.05478000  0.60106000  1.0
  O  O805  1  0.35058000  0.03392000  0.57421000  1.0
  O  O806  1  0.45634000  0.06040000  0.62023000  1.0
  O  O807  1  0.50344000  0.02871000  0.60240000  1.0
  O  O808  1  0.82592000  0.62096000  0.42664000  1.0
  O  O809  1  0.79244000  0.58761000  0.44386000  1.0
  O  O810  1  0.99612000  0.61261000  0.44465000  1.0
  O  O811  1  0.95724000  0.58112000  0.46421000  1.0
  O  O812  1  0.34952000  0.43165000  0.85557000  1.0
  O  O813  1  0.29248000  0.44807000  0.88648000  1.0
  O  O814  1  0.50854000  0.45454000  0.86937000  1.0
  O  O815  1  0.45052000  0.46949000  0.90085000  1.0
