# generated using pymatgen
data_CuH16(C7N)4
_symmetry_space_group_name_H-M   'P 1'
_cell_length_a   35.58531221
_cell_length_b   35.58730000
_cell_length_c   52.18390000
_cell_angle_alpha   90.00900000
_cell_angle_beta   89.98300117
_cell_angle_gamma   59.99645627
_symmetry_Int_Tables_number   1
_chemical_formula_structural   CuH16(C7N)4
_chemical_formula_sum   'Cu18 H288 C504 N72'
_cell_volume   57229.16763574
_cell_formula_units_Z   18
loop_
 _symmetry_equiv_pos_site_id
 _symmetry_equiv_pos_as_xyz
  1  'x, y, z'
loop_
 _atom_site_type_symbol
 _atom_site_label
 _atom_site_symmetry_multiplicity
 _atom_site_fract_x
 _atom_site_fract_y
 _atom_site_fract_z
 _atom_site_occupancy
  Cu  Cu0  1  0.87704000  0.67987000  0.93801000  1.0
  Cu  Cu1  1  0.66818000  0.42123000  0.92226000  1.0
  Cu  Cu2  1  0.35730000  0.92603000  0.91464000  1.0
  Cu  Cu3  1  0.06288000  0.27409000  0.05953000  1.0
  Cu  Cu4  1  0.26681000  0.61993000  0.03165000  1.0
  Cu  Cu5  1  0.60850000  0.09979000  0.01915000  1.0
  Cu  Cu6  1  0.56069000  0.35163000  0.60260000  1.0
  Cu  Cu7  1  0.36320000  0.04616000  0.59522000  1.0
  Cu  Cu8  1  0.03209000  0.57818000  0.58792000  1.0
  Cu  Cu9  1  0.74449000  0.95046000  0.71881000  1.0
  Cu  Cu10  1  0.94310000  0.28303000  0.70439000  1.0
  Cu  Cu11  1  0.25418000  0.76181000  0.69503000  1.0
  Cu  Cu12  1  0.26489000  0.02657000  0.28234000  1.0
  Cu  Cu13  1  0.04934000  0.66920000  0.25543000  1.0
  Cu  Cu14  1  0.66899000  0.24126000  0.25744000  1.0
  Cu  Cu15  1  0.40289000  0.62753000  0.38754000  1.0
  Cu  Cu16  1  0.66286000  0.89944000  0.39066000  1.0
  Cu  Cu17  1  0.91025000  0.40530000  0.37927000  1.0
  H  H18  1  0.95370000  0.56235000  0.98794000  1.0
  H  H19  1  0.99361000  0.48361000  0.99286000  1.0
  H  H20  1  0.89678000  0.47492000  0.94723000  1.0
  H  H21  1  0.85768000  0.55383000  0.94197000  1.0
  H  H22  1  0.96154000  0.40927000  0.93595000  1.0
  H  H23  1  0.00119000  0.33040000  0.94283000  1.0
  H  H24  1  0.03525000  0.29969000  0.98458000  1.0
  H  H25  1  0.98699000  0.42839000  0.01441000  1.0
  H  H26  1  0.53256000  0.54726000  0.96151000  1.0
  H  H27  1  0.47175000  0.55785000  0.98851000  1.0
  H  H28  1  0.54922000  0.42716000  0.01750000  1.0
  H  H29  1  0.61020000  0.41751000  0.99101000  1.0
  H  H30  1  0.50909000  0.46703000  0.05485000  1.0
  H  H31  1  0.44830000  0.47822000  0.08232000  1.0
  H  H32  1  0.37311000  0.51779000  0.06622000  1.0
  H  H33  1  0.41911000  0.53449000  0.99322000  1.0
  H  H34  1  0.48376000  0.10569000  0.96086000  1.0
  H  H35  1  0.44536000  0.06468000  0.95857000  1.0
  H  H36  1  0.54309000  0.96551000  0.00705000  1.0
  H  H37  1  0.58079000  0.00703000  0.00951000  1.0
  H  H38  1  0.47521000  0.97141000  0.02222000  1.0
  H  H39  1  0.43662000  0.93035000  0.02046000  1.0
  H  H40  1  0.40623000  0.92234000  0.97978000  1.0
  H  H41  1  0.45412000  0.99678000  0.94101000  1.0
  H  H42  1  0.61635000  0.24435000  0.64533000  1.0
  H  H43  1  0.66759000  0.17288000  0.66300000  1.0
  H  H44  1  0.69000000  0.11787000  0.58687000  1.0
  H  H45  1  0.63937000  0.18962000  0.56939000  1.0
  H  H46  1  0.76159000  0.07935000  0.60681000  1.0
  H  H47  1  0.81249000  0.00746000  0.62443000  1.0
  H  H48  1  0.79556000  0.98225000  0.66448000  1.0
  H  H49  1  0.67370000  0.10179000  0.66964000  1.0
  H  H50  1  0.25625000  0.11865000  0.67163000  1.0
  H  H51  1  0.18189000  0.13734000  0.68237000  1.0
  H  H52  1  0.15699000  0.12660000  0.60238000  1.0
  H  H53  1  0.23173000  0.10703000  0.59198000  1.0
  H  H54  1  0.11698000  0.09742000  0.62420000  1.0
  H  H55  1  0.04224000  0.11663000  0.63498000  1.0
  H  H56  1  0.00012000  0.17386000  0.66666667  1.0
  H  H57  1  0.10778000  0.19557000  0.67674000  1.0
  H  H58  1  0.12506000  0.74228000  0.68513000  1.0
  H  H59  1  0.10692000  0.68965000  0.66735000  1.0
  H  H60  1  0.23969000  0.58749000  0.67841000  1.0
  H  H61  1  0.25717000  0.64033000  0.69673000  1.0
  H  H62  1  0.19744000  0.55282000  0.68943000  1.0
  H  H63  1  0.17820000  0.50033000  0.67226000  1.0
  H  H64  1  0.13045000  0.51847000  0.63459000  1.0
  H  H65  1  0.12109000  0.64360000  0.63000000  1.0
  H  H66  1  0.39270000  0.73119000  0.32967000  1.0
  H  H67  1  0.37006000  0.80719000  0.32079000  1.0
  H  H68  1  0.40294000  0.82198000  0.39846000  1.0
  H  H69  1  0.42624000  0.74571000  0.40695000  1.0
  H  H70  1  0.42739000  0.86339000  0.37326000  1.0
  H  H71  1  0.40733000  0.93871000  0.36355000  1.0
  H  H72  1  0.34211000  0.98538000  0.33796000  1.0
  H  H73  1  0.31467000  0.88087000  0.33175000  1.0
  H  H74  1  0.83332000  0.81852000  0.38643000  1.0
  H  H75  1  0.88684000  0.80628000  0.35316000  1.0
  H  H76  1  0.78846000  0.83933000  0.29513000  1.0
  H  H77  1  0.73507000  0.85247000  0.32862000  1.0
  H  H78  1  0.82982000  0.87082000  0.27858000  1.0
  H  H79  1  0.88285000  0.85859000  0.24484000  1.0
  H  H80  1  0.95766000  0.79694000  0.24747000  1.0
  H  H81  1  0.92683000  0.75703000  0.31851000  1.0
  H  H82  1  0.87836000  0.30080000  0.34200000  1.0
  H  H83  1  0.83991000  0.28713000  0.30759000  1.0
  H  H84  1  0.74016000  0.42239000  0.30888000  1.0
  H  H85  1  0.77927000  0.43581000  0.34298000  1.0
  H  H86  1  0.74738000  0.40367000  0.26338000  1.0
  H  H87  1  0.70741000  0.39021000  0.22962000  1.0
  H  H88  1  0.70004000  0.32495000  0.23085000  1.0
  H  H89  1  0.77253000  0.28538000  0.30130000  1.0
  H  H90  1  0.90366000  0.71520000  0.86504000  1.0
  H  H91  1  0.90436000  0.76493000  0.83286000  1.0
  H  H92  1  0.77084000  0.85779000  0.85108000  1.0
  H  H93  1  0.77030000  0.80737000  0.88281000  1.0
  H  H94  1  0.90209000  0.83405000  0.82974000  1.0
  H  H95  1  0.90281000  0.88330000  0.79701000  1.0
  H  H96  1  0.83999000  0.92396000  0.76842000  1.0
  H  H97  1  0.77399000  0.86481000  0.80492000  1.0
  H  H98  1  0.70808000  0.42537000  0.82371000  1.0
  H  H99  1  0.76729000  0.37617000  0.79536000  1.0
  H  H100  1  0.83591000  0.29607000  0.86050000  1.0
  H  H101  1  0.77618000  0.34499000  0.88854000  1.0
  H  H102  1  0.85026000  0.24340000  0.82678000  1.0
  H  H103  1  0.90928000  0.19346000  0.79836000  1.0
  H  H104  1  0.93524000  0.22157000  0.76352000  1.0
  H  H105  1  0.84289000  0.35239000  0.78581000  1.0
  H  H106  1  0.25902000  0.75676000  0.78007000  1.0
  H  H107  1  0.25026000  0.79397000  0.82101000  1.0
  H  H108  1  0.31518000  0.85868000  0.78932000  1.0
  H  H109  1  0.32448000  0.82062000  0.74865000  1.0
  H  H110  1  0.21082000  0.86599000  0.83986000  1.0
  H  H111  1  0.20270000  0.90322000  0.88090000  1.0
  H  H112  1  0.26239000  0.91203000  0.89808000  1.0
  H  H113  1  0.34150000  0.84352000  0.83307000  1.0
  H  H114  1  0.07384000  0.23882000  0.16004000  1.0
  H  H115  1  0.13015000  0.19019000  0.18997000  1.0
  H  H116  1  0.22481000  0.14730000  0.12884000  1.0
  H  H117  1  0.16855000  0.19723000  0.09940000  1.0
  H  H118  1  0.26545000  0.14915000  0.16493000  1.0
  H  H119  1  0.32209000  0.10156000  0.19525000  1.0
  H  H120  1  0.30698000  0.06151000  0.22834000  1.0
  H  H121  1  0.17652000  0.11505000  0.20008000  1.0
  H  H122  1  0.23498000  0.58860000  0.12791000  1.0
  H  H123  1  0.17126000  0.60362000  0.15367000  1.0
  H  H124  1  0.08798000  0.67287000  0.08984000  1.0
  H  H125  1  0.15168000  0.65857000  0.06446000  1.0
  H  H126  1  0.05834000  0.62687000  0.10866000  1.0
  H  H127  1  0.99427000  0.64025000  0.13379000  1.0
  H  H128  1  0.98429000  0.66820000  0.17800000  1.0
  H  H129  1  0.10448000  0.66938000  0.17271000  1.0
  H  H130  1  0.56163000  0.23937000  0.06642000  1.0
  H  H131  1  0.58819000  0.26921000  0.09944000  1.0
  H  H132  1  0.66702000  0.14068000  0.13110000  1.0
  H  H133  1  0.63948000  0.11137000  0.09828000  1.0
  H  H134  1  0.65456000  0.26821000  0.11167000  1.0
  H  H135  1  0.68172000  0.29795000  0.14464000  1.0
  H  H136  1  0.69013000  0.27278000  0.18943000  1.0
  H  H137  1  0.64260000  0.18695000  0.16881000  1.0
  H  H138  1  0.49913000  0.47940000  0.55415000  1.0
  H  H139  1  0.45751000  0.51294000  0.51510000  1.0
  H  H140  1  0.53072000  0.39077000  0.47521000  1.0
  H  H141  1  0.57155000  0.35743000  0.51449000  1.0
  H  H142  1  0.45752000  0.41929000  0.45872000  1.0
  H  H143  1  0.41485000  0.45241000  0.41980000  1.0
  H  H144  1  0.39658000  0.52623000  0.40680000  1.0
  H  H145  1  0.46592000  0.53471000  0.47206000  1.0
  H  H146  1  0.42427000  0.97087000  0.53439000  1.0
  H  H147  1  0.48436000  0.91966000  0.50728000  1.0
  H  H148  1  0.54319000  0.00020000  0.51320000  1.0
  H  H149  1  0.48239000  0.05163000  0.53986000  1.0
  H  H150  1  0.56088000  0.86720000  0.51067000  1.0
  H  H151  1  0.62153000  0.81509000  0.48400000  1.0
  H  H152  1  0.65244000  0.84049000  0.45048000  1.0
  H  H153  1  0.56008000  0.97299000  0.46952000  1.0
  H  H154  1  0.94749000  0.50818000  0.42330000  1.0
  H  H155  1  0.99203000  0.51046000  0.45843000  1.0
  H  H156  1  0.98945000  0.40256000  0.49470000  1.0
  H  H157  1  0.94554000  0.40017000  0.45929000  1.0
  H  H158  1  0.06256000  0.38895000  0.50373000  1.0
  H  H159  1  0.10476000  0.39246000  0.53999000  1.0
  H  H160  1  0.08825000  0.46293000  0.55832000  1.0
  H  H161  1  0.98445000  0.52881000  0.50401000  1.0
  H  H162  1  0.04542000  0.61304000  0.92405000  1.0
  H  H163  1  0.10688000  0.59447000  0.95279000  1.0
  H  H164  1  0.02717000  0.60454000  0.01780000  1.0
  H  H165  1  0.96578000  0.62371000  0.98898000  1.0
  H  H166  1  0.10105000  0.53897000  0.02659000  1.0
  H  H167  1  0.16228000  0.52094000  0.05564000  1.0
  H  H168  1  0.20544000  0.55734000  0.05125000  1.0
  H  H169  1  0.12534000  0.63196000  0.98792000  1.0
  H  H170  1  0.58229000  0.33776000  0.94662000  1.0
  H  H171  1  0.59203000  0.28493000  0.97986000  1.0
  H  H172  1  0.71023000  0.28069000  0.00416000  1.0
  H  H173  1  0.69970000  0.33402000  0.97125000  1.0
  H  H174  1  0.68013000  0.27159000  0.04422000  1.0
  H  H175  1  0.69782000  0.21186000  0.07437000  1.0
  H  H176  1  0.68865000  0.15015000  0.06177000  1.0
  H  H177  1  0.64185000  0.20825000  0.98786000  1.0
  H  H178  1  0.29152000  0.04995000  0.95831000  1.0
  H  H179  1  0.25354000  0.08894000  0.99726000  1.0
  H  H180  1  0.18022000  0.02205000  0.99680000  1.0
  H  H181  1  0.21877000  0.98289000  0.95803000  1.0
  H  H182  1  0.19334000  0.02738000  0.04259000  1.0
  H  H183  1  0.15301000  0.06845000  0.08070000  1.0
  H  H184  1  0.12639000  0.14696000  0.08403000  1.0
  H  H185  1  0.18018000  0.14482000  0.00982000  1.0
  H  H186  1  0.96625000  0.25560000  0.99017000  1.0
  H  H187  1  0.90307000  0.30379000  0.96399000  1.0
  H  H188  1  0.87626000  0.41067000  0.01443000  1.0
  H  H189  1  0.93941000  0.36217000  0.04054000  1.0
  H  H190  1  0.86014000  0.44281000  0.97064000  1.0
  H  H191  1  0.79612000  0.49098000  0.94468000  1.0
  H  H192  1  0.74500000  0.46718000  0.93071000  1.0
  H  H193  1  0.82254000  0.34482000  0.96885000  1.0
  H  H194  1  0.38639000  0.78803000  0.96099000  1.0
  H  H195  1  0.35042000  0.74563000  0.96846000  1.0
  H  H196  1  0.22611000  0.85979000  0.95373000  1.0
  H  H197  1  0.26256000  0.90173000  0.94609000  1.0
  H  H198  1  0.21881000  0.80061000  0.93479000  1.0
  H  H199  1  0.18255000  0.75854000  0.94353000  1.0
  H  H200  1  0.20553000  0.70750000  0.97989000  1.0
  H  H201  1  0.30235000  0.74099000  0.00012000  1.0
  H  H202  1  0.73411000  0.94210000  0.03379000  1.0
  H  H203  1  0.78764000  0.88677000  0.00505000  1.0
  H  H204  1  0.70402000  0.95141000  0.94041000  1.0
  H  H205  1  0.65095000  0.00690000  0.96932000  1.0
  H  H206  1  0.77739000  0.92885000  0.92423000  1.0
  H  H207  1  0.83446000  0.87467000  0.89628000  1.0
  H  H208  1  0.87442000  0.79747000  0.90864000  1.0
  H  H209  1  0.79741000  0.82718000  0.97715000  1.0
  H  H210  1  0.67268000  0.35918000  0.65910000  1.0
  H  H211  1  0.75099000  0.33171000  0.65927000  1.0
  H  H212  1  0.77032000  0.22456000  0.61115000  1.0
  H  H213  1  0.69182000  0.25284000  0.61074000  1.0
  H  H214  1  0.82310000  0.24353000  0.59470000  1.0
  H  H215  1  0.90162000  0.21643000  0.59490000  1.0
  H  H216  1  0.93880000  0.21674000  0.63469000  1.0
  H  H217  1  0.81785000  0.27083000  0.67570000  1.0
  H  H218  1  0.21305000  0.90206000  0.64024000  1.0
  H  H219  1  0.25276000  0.92430000  0.61143000  1.0
  H  H220  1  0.37407000  0.82009000  0.64057000  1.0
  H  H221  1  0.33396000  0.79766000  0.66890000  1.0
  H  H222  1  0.38872000  0.82126000  0.59522000  1.0
  H  H223  1  0.42911000  0.84318000  0.56653000  1.0
  H  H224  1  0.40545000  0.92051000  0.56014000  1.0
  H  H225  1  0.29934000  0.95607000  0.61242000  1.0
  H  H226  1  0.89911000  0.82392000  0.69633000  1.0
  H  H227  1  0.93180000  0.77099000  0.66154000  1.0
  H  H228  1  0.82058000  0.85061000  0.61377000  1.0
  H  H229  1  0.78884000  0.90367000  0.64849000  1.0
  H  H230  1  0.88029000  0.82337000  0.58380000  1.0
  H  H231  1  0.91263000  0.77064000  0.54874000  1.0
  H  H232  1  0.95023000  0.69205000  0.55748000  1.0
  H  H233  1  0.92206000  0.71792000  0.63786000  1.0
  H  H234  1  0.47327000  0.01798000  0.65802000  1.0
  H  H235  1  0.54369000  0.01351000  0.66424000  1.0
  H  H236  1  0.57968000  0.96698000  0.58660000  1.0
  H  H237  1  0.50943000  0.97098000  0.58072000  1.0
  H  H238  1  0.60974000  0.01706000  0.59392000  1.0
  H  H239  1  0.68165000  0.00970000  0.60051000  1.0
  H  H240  1  0.72393000  0.97459000  0.63942000  1.0
  H  H241  1  0.62139000  0.95411000  0.66657000  1.0
  H  H242  1  0.01074000  0.33636000  0.64840000  1.0
  H  H243  1  0.03716000  0.38806000  0.64684000  1.0
  H  H244  1  0.92919000  0.47708000  0.69406000  1.0
  H  H245  1  0.90352000  0.42482000  0.69584000  1.0
  H  H246  1  0.98946000  0.48518000  0.70977000  1.0
  H  H247  1  0.01551000  0.53739000  0.70807000  1.0
  H  H248  1  0.04279000  0.55069000  0.66758000  1.0
  H  H249  1  0.01689000  0.45913000  0.62902000  1.0
  H  H250  1  0.29801000  0.62341000  0.64230000  1.0
  H  H251  1  0.35337000  0.54639000  0.64492000  1.0
  H  H252  1  0.43122000  0.57912000  0.69351000  1.0
  H  H253  1  0.37538000  0.65587000  0.69106000  1.0
  H  H254  1  0.44193000  0.51113000  0.71167000  1.0
  H  H255  1  0.49874000  0.43438000  0.71387000  1.0
  H  H256  1  0.52044000  0.38841000  0.67519000  1.0
  H  H257  1  0.42800000  0.49728000  0.63052000  1.0
  H  H258  1  0.56277000  0.87552000  0.33009000  1.0
  H  H259  1  0.49771000  0.92359000  0.30531000  1.0
  H  H260  1  0.46954000  0.02825000  0.35799000  1.0
  H  H261  1  0.53516000  0.98009000  0.38229000  1.0
  H  H262  1  0.45101000  0.06413000  0.31663000  1.0
  H  H263  1  0.38736000  0.11302000  0.29081000  1.0
  H  H264  1  0.33974000  0.08776000  0.27282000  1.0
  H  H265  1  0.41909000  0.96261000  0.30753000  1.0
  H  H266  1  0.97572000  0.44448000  0.30184000  1.0
  H  H267  1  0.00739000  0.49132000  0.29638000  1.0
  H  H268  1  0.94021000  0.56262000  0.36445000  1.0
  H  H269  1  0.90958000  0.51506000  0.36999000  1.0
  H  H270  1  0.00970000  0.55882000  0.36777000  1.0
  H  H271  1  0.04195000  0.60542000  0.36319000  1.0
  H  H272  1  0.04844000  0.63179000  0.32068000  1.0
  H  H273  1  0.98830000  0.56534000  0.28596000  1.0
  H  H274  1  0.56475000  0.41499000  0.25820000  1.0
  H  H275  1  0.53957000  0.46796000  0.29323000  1.0
  H  H276  1  0.61880000  0.36537000  0.34644000  1.0
  H  H277  1  0.64454000  0.31308000  0.31118000  1.0
  H  H278  1  0.62246000  0.42617000  0.36360000  1.0
  H  H279  1  0.59409000  0.47725000  0.39970000  1.0
  H  H280  1  0.51672000  0.53351000  0.40158000  1.0
  H  H281  1  0.49395000  0.48679000  0.33056000  1.0
  H  H282  1  0.21605000  0.61374000  0.27627000  1.0
  H  H283  1  0.25818000  0.61154000  0.31389000  1.0
  H  H284  1  0.14374000  0.65674000  0.36112000  1.0
  H  H285  1  0.10209000  0.65819000  0.32338000  1.0
  H  H286  1  0.20204000  0.60398000  0.38844000  1.0
  H  H287  1  0.24506000  0.60071000  0.42609000  1.0
  H  H288  1  0.29817000  0.62585000  0.42339000  1.0
  H  H289  1  0.26451000  0.66001000  0.34425000  1.0
  H  H290  1  0.61225000  0.17205000  0.32773000  1.0
  H  H291  1  0.63963000  0.10160000  0.34868000  1.0
  H  H292  1  0.76381000  0.05542000  0.31166000  1.0
  H  H293  1  0.73623000  0.12642000  0.29116000  1.0
  H  H294  1  0.78334000  0.02267000  0.35422000  1.0
  H  H295  1  0.81009000  0.95259000  0.37598000  1.0
  H  H296  1  0.76372000  0.91970000  0.37994000  1.0
  H  H297  1  0.66221000  0.02674000  0.33839000  1.0
  H  H298  1  0.19797000  0.15270000  0.35182000  1.0
  H  H299  1  0.12545000  0.20014000  0.36952000  1.0
  H  H300  1  0.06964000  0.16142000  0.30860000  1.0
  H  H301  1  0.14239000  0.11354000  0.29135000  1.0
  H  H302  1  0.02647000  0.16574000  0.34596000  1.0
  H  H303  1  0.95372000  0.21250000  0.36390000  1.0
  H  H304  1  0.93241000  0.28552000  0.38013000  1.0
  H  H305  1  0.05780000  0.26674000  0.35957000  1.0
  C  C306  1  0.86086000  0.76220000  0.95083000  1.0
  C  C307  1  0.87898000  0.61020000  0.96240000  1.0
  C  C308  1  0.96530000  0.63030000  0.93770000  1.0
  C  C309  1  0.83636000  0.72830000  0.89478000  1.0
  C  C310  1  0.75041000  0.39060000  0.94128000  1.0
  C  C311  1  0.61144000  0.47578000  0.95864000  1.0
  C  C312  1  0.63553000  0.36932000  0.93654000  1.0
  C  C313  1  0.70275000  0.41730000  0.87464000  1.0
  C  C314  1  0.34830000  0.87261000  0.94903000  1.0
  C  C315  1  0.41067000  0.95422000  0.93386000  1.0
  C  C316  1  0.27945000  0.99163000  0.93231000  1.0
  C  C317  1  0.34069000  0.88351000  0.87659000  1.0
  C  C318  1  0.13624000  0.19669000  0.04891000  1.0
  C  C319  1  0.99481000  0.27723000  0.03218000  1.0
  C  C320  1  0.03228000  0.34491000  0.02684000  1.0
  C  C321  1  0.08394000  0.25093000  0.11032000  1.0
  C  C322  1  0.19193000  0.61994000  0.01733000  1.0
  C  C323  1  0.26903000  0.69126000  0.01367000  1.0
  C  C324  1  0.34731000  0.55205000  0.01930000  1.0
  C  C325  1  0.23565000  0.61171000  0.07900000  1.0
  C  C326  1  0.65867000  0.13964000  0.01652000  1.0
  C  C327  1  0.65849000  0.01207000  0.02024000  1.0
  C  C328  1  0.55697000  0.08387000  0.98701000  1.0
  C  C329  1  0.58314000  0.15596000  0.06052000  1.0
  C  C330  1  0.48808000  0.41304000  0.62774000  1.0
  C  C331  1  0.59389000  0.26389000  0.59576000  1.0
  C  C332  1  0.63073000  0.32445000  0.63479000  1.0
  C  C333  1  0.56218000  0.39628000  0.56013000  1.0
  C  C334  1  0.44529000  0.99690000  0.61552000  1.0
  C  C335  1  0.29288000  0.10079000  0.62485000  1.0
  C  C336  1  0.33706000  0.98843000  0.58223000  1.0
  C  C337  1  0.41387000  0.04464000  0.55506000  1.0
  C  C338  1  0.04751000  0.51329000  0.62204000  1.0
  C  C339  1  0.09465000  0.59298000  0.60788000  1.0
  C  C340  1  0.96080000  0.65399000  0.60336000  1.0
  C  C341  1  0.02545000  0.54177000  0.54301000  1.0
  C  C342  1  0.82270000  0.89870000  0.69521000  1.0
  C  C343  1  0.70002000  0.94123000  0.67831000  1.0
  C  C344  1  0.72345000  0.02560000  0.69297000  1.0
  C  C345  1  0.76594000  0.92112000  0.76838000  1.0
  C  C346  1  0.90226000  0.24384000  0.68113000  1.0
  C  C347  1  0.94011000  0.34640000  0.67333000  1.0
  C  C348  1  0.02676000  0.22178000  0.69235000  1.0
  C  C349  1  0.90574000  0.30528000  0.75204000  1.0
  C  C350  1  0.24731000  0.83487000  0.67314000  1.0
  C  C351  1  0.30061000  0.69021000  0.66473000  1.0
  C  C352  1  0.20258000  0.72597000  0.70301000  1.0
  C  C353  1  0.29839000  0.76339000  0.73769000  1.0
  C  C354  1  0.21795000  0.10138000  0.31031000  1.0
  C  C355  1  0.28683000  0.96309000  0.31763000  1.0
  C  C356  1  0.34870000  0.00880000  0.27854000  1.0
  C  C357  1  0.23174000  0.06294000  0.23605000  1.0
  C  C358  1  0.13186000  0.63648000  0.27501000  1.0
  C  C359  1  0.99086000  0.73713000  0.28475000  1.0
  C  C360  1  0.02304000  0.61546000  0.27575000  1.0
  C  C361  1  0.03709000  0.68844000  0.20374000  1.0
  C  C362  1  0.65605000  0.19596000  0.29615000  1.0
  C  C363  1  0.73118000  0.26299000  0.26700000  1.0
  C  C364  1  0.61991000  0.32887000  0.26200000  1.0
  C  C365  1  0.67195000  0.21328000  0.20809000  1.0
  C  C366  1  0.45550000  0.54722000  0.36684000  1.0
  C  C367  1  0.31590000  0.65906000  0.38197000  1.0
  C  C368  1  0.42646000  0.68791000  0.37367000  1.0
  C  C369  1  0.41949000  0.57832000  0.43094000  1.0
  C  C370  1  0.59278000  0.89685000  0.37171000  1.0
  C  C371  1  0.68278000  0.95177000  0.36118000  1.0
  C  C372  1  0.74887000  0.84454000  0.37947000  1.0
  C  C373  1  0.62666000  0.92311000  0.43839000  1.0
  C  C374  1  0.92293000  0.44815000  0.34003000  1.0
  C  C375  1  0.98101000  0.32374000  0.38011000  1.0
  C  C376  1  0.85336000  0.37692000  0.36571000  1.0
  C  C377  1  0.91595000  0.45383000  0.41872000  1.0
  C  C378  1  0.90293000  0.56363000  0.96461000  1.0
  C  C379  1  0.94129000  0.54341000  0.97890000  1.0
  C  C380  1  0.96382000  0.49837000  0.98187000  1.0
  C  C381  1  0.94818000  0.47283000  0.97069000  1.0
  C  C382  1  0.90987000  0.49345000  0.95602000  1.0
  C  C383  1  0.88739000  0.53856000  0.95306000  1.0
  C  C384  1  0.97155000  0.42504000  0.97462000  1.0
  C  C385  1  0.97544000  0.39678000  0.95461000  1.0
  C  C386  1  0.99825000  0.35186000  0.95835000  1.0
  C  C387  1  0.01759000  0.33456000  0.98199000  1.0
  C  C388  1  0.01356000  0.36226000  0.00215000  1.0
  C  C389  1  0.99051000  0.40726000  0.99851000  1.0
  C  C390  1  0.57561000  0.48165000  0.97436000  1.0
  C  C391  1  0.53631000  0.52098000  0.97372000  1.0
  C  C392  1  0.50152000  0.52683000  0.98902000  1.0
  C  C393  1  0.50554000  0.49334000  0.00518000  1.0
  C  C394  1  0.54517000  0.45380000  0.00556000  1.0
  C  C395  1  0.57995000  0.44810000  0.99031000  1.0
  C  C396  1  0.46882000  0.49986000  0.02182000  1.0
  C  C397  1  0.47651000  0.48393000  0.04711000  1.0
  C  C398  1  0.44204000  0.49045000  0.06289000  1.0
  C  C399  1  0.39951000  0.51290000  0.05373000  1.0
  C  C400  1  0.39127000  0.52892000  0.02864000  1.0
  C  C401  1  0.42578000  0.52240000  0.01272000  1.0
  C  C402  1  0.53492000  0.05930000  0.98537000  1.0
  C  C403  1  0.49684000  0.07507000  0.97093000  1.0
  C  C404  1  0.47510000  0.05151000  0.96955000  1.0
  C  C405  1  0.49114000  0.01187000  0.98268000  1.0
  C  C406  1  0.52960000  0.99617000  0.99702000  1.0
  C  C407  1  0.55131000  0.01974000  0.99833000  1.0
  C  C408  1  0.46765000  0.98723000  0.98169000  1.0
  C  C409  1  0.46256000  0.96806000  0.00403000  1.0
  C  C410  1  0.44044000  0.94489000  0.00318000  1.0
  C  C411  1  0.42319000  0.94049000  0.98010000  1.0
  C  C412  1  0.42802000  0.95931000  0.95771000  1.0
  C  C413  1  0.45009000  0.98270000  0.95849000  1.0
  C  C414  1  0.62426000  0.22197000  0.60613000  1.0
  C  C415  1  0.63240000  0.21684000  0.63251000  1.0
  C  C416  1  0.66146000  0.17597000  0.64257000  1.0
  C  C417  1  0.68281000  0.13965000  0.62634000  1.0
  C  C418  1  0.67451000  0.14521000  0.59984000  1.0
  C  C419  1  0.64544000  0.18610000  0.58983000  1.0
  C  C420  1  0.71371000  0.09621000  0.63695000  1.0
  C  C421  1  0.75308000  0.06893000  0.62428000  1.0
  C  C422  1  0.78227000  0.02814000  0.63429000  1.0
  C  C423  1  0.77265000  0.01402000  0.65701000  1.0
  C  C424  1  0.73356000  0.04064000  0.66978000  1.0
  C  C425  1  0.70416000  0.08161000  0.65981000  1.0
  C  C426  1  0.24917000  0.11155000  0.63107000  1.0
  C  C427  1  0.23469000  0.12031000  0.65648000  1.0
  C  C428  1  0.19212000  0.13125000  0.66253000  1.0
  C  C429  1  0.16341000  0.13358000  0.64322000  1.0
  C  C430  1  0.17835000  0.12461000  0.61774000  1.0
  C  C431  1  0.22094000  0.11366000  0.61173000  1.0
  C  C432  1  0.11820000  0.14508000  0.64966000  1.0
  C  C433  1  0.09901000  0.12319000  0.63789000  1.0
  C  C434  1  0.05662000  0.13377000  0.64406000  1.0
  C  C435  1  0.03285000  0.16620000  0.66202000  1.0
  C  C436  1  0.05140000  0.18834000  0.67384000  1.0
  C  C437  1  0.09390000  0.17787000  0.66769000  1.0
  C  C438  1  0.19233000  0.69496000  0.69220000  1.0
  C  C439  1  0.15016000  0.70853000  0.68369000  1.0
  C  C440  1  0.13997000  0.67846000  0.67339000  1.0
  C  C441  1  0.17187000  0.63435000  0.67146000  1.0
  C  C442  1  0.21426000  0.62108000  0.67993000  1.0
  C  C443  1  0.22438000  0.65121000  0.69025000  1.0
  C  C444  1  0.16074000  0.60232000  0.66099000  1.0
  C  C445  1  0.17686000  0.56145000  0.67266000  1.0
  C  C446  1  0.16583000  0.53157000  0.66308000  1.0
  C  C447  1  0.13870000  0.54198000  0.64177000  1.0
  C  C448  1  0.12252000  0.58242000  0.62990000  1.0
  C  C449  1  0.13345000  0.61252000  0.63947000  1.0
  C  C450  1  0.41100000  0.73318000  0.36893000  1.0
  C  C451  1  0.39474000  0.75098000  0.34477000  1.0
  C  C452  1  0.38165000  0.79444000  0.33979000  1.0
  C  C453  1  0.38475000  0.82067000  0.35891000  1.0
  C  C454  1  0.40067000  0.80255000  0.38323000  1.0
  C  C455  1  0.41371000  0.75911000  0.38817000  1.0
  C  C456  1  0.37237000  0.86637000  0.35337000  1.0
  C  C457  1  0.39818000  0.88335000  0.36233000  1.0
  C  C458  1  0.38708000  0.92607000  0.35677000  1.0
  C  C459  1  0.35015000  0.95240000  0.34225000  1.0
  C  C460  1  0.32413000  0.93603000  0.33320000  1.0
  C  C461  1  0.33515000  0.89318000  0.33873000  1.0
  C  C462  1  0.78055000  0.83614000  0.35983000  1.0
  C  C463  1  0.82347000  0.82294000  0.36651000  1.0
  C  C464  1  0.85401000  0.81578000  0.34746000  1.0
  C  C465  1  0.84196000  0.82179000  0.32145000  1.0
  C  C466  1  0.79871000  0.83495000  0.31496000  1.0
  C  C467  1  0.76823000  0.84216000  0.33403000  1.0
  C  C468  1  0.87420000  0.81474000  0.30118000  1.0
  C  C469  1  0.86227000  0.84317000  0.28012000  1.0
  C  C470  1  0.89237000  0.83656000  0.26094000  1.0
  C  C471  1  0.93472000  0.80167000  0.26252000  1.0
  C  C472  1  0.94718000  0.77321000  0.28338000  1.0
  C  C473  1  0.91706000  0.77965000  0.30265000  1.0
  C  C474  1  0.83159000  0.36928000  0.34482000  1.0
  C  C475  1  0.84835000  0.32746000  0.33473000  1.0
  C  C476  1  0.82617000  0.31968000  0.31521000  1.0
  C  C477  1  0.78693000  0.35368000  0.30552000  1.0
  C  C478  1  0.77054000  0.39565000  0.31568000  1.0
  C  C479  1  0.79273000  0.40335000  0.33521000  1.0
  C  C480  1  0.76312000  0.34545000  0.28494000  1.0
  C  C481  1  0.74426000  0.37497000  0.26456000  1.0
  C  C482  1  0.72171000  0.36738000  0.24523000  1.0
  C  C483  1  0.71768000  0.33034000  0.24597000  1.0
  C  C484  1  0.73619000  0.30070000  0.26613000  1.0
  C  C485  1  0.75885000  0.30819000  0.28556000  1.0
  C  C486  1  0.83687000  0.75771000  0.87604000  1.0
  C  C487  1  0.87458000  0.74624000  0.86198000  1.0
  C  C488  1  0.87499000  0.77481000  0.84375000  1.0
  C  C489  1  0.83761000  0.81532000  0.83934000  1.0
  C  C490  1  0.79991000  0.82661000  0.85368000  1.0
  C  C491  1  0.79957000  0.79797000  0.87189000  1.0
  C  C492  1  0.83793000  0.84556000  0.81982000  1.0
  C  C493  1  0.87425000  0.85109000  0.81727000  1.0
  C  C494  1  0.87475000  0.87924000  0.79878000  1.0
  C  C495  1  0.83911000  0.90226000  0.78266000  1.0
  C  C496  1  0.80270000  0.89722000  0.78499000  1.0
  C  C497  1  0.80208000  0.86898000  0.80350000  1.0
  C  C498  1  0.73795000  0.38861000  0.85810000  1.0
  C  C499  1  0.73595000  0.39720000  0.83181000  1.0
  C  C500  1  0.76991000  0.36920000  0.81569000  1.0
  C  C501  1  0.80634000  0.33212000  0.82567000  1.0
  C  C502  1  0.80811000  0.32394000  0.85216000  1.0
  C  C503  1  0.77413000  0.35200000  0.86824000  1.0
  C  C504  1  0.84203000  0.30186000  0.80850000  1.0
  C  C505  1  0.86136000  0.25669000  0.81186000  1.0
  C  C506  1  0.89476000  0.22811000  0.79567000  1.0
  C  C507  1  0.90934000  0.24413000  0.77594000  1.0
  C  C508  1  0.89050000  0.28894000  0.77237000  1.0
  C  C509  1  0.85695000  0.31773000  0.78856000  1.0
  C  C510  1  0.29249000  0.78599000  0.76155000  1.0
  C  C511  1  0.27132000  0.77899000  0.78203000  1.0
  C  C512  1  0.26614000  0.80045000  0.80533000  1.0
  C  C513  1  0.28206000  0.82928000  0.80846000  1.0
  C  C514  1  0.30309000  0.83626000  0.78768000  1.0
  C  C515  1  0.30822000  0.81478000  0.76440000  1.0
  C  C516  1  0.27688000  0.85186000  0.83327000  1.0
  C  C517  1  0.23782000  0.86875000  0.84716000  1.0
  C  C518  1  0.23292000  0.89016000  0.87043000  1.0
  C  C519  1  0.26679000  0.89506000  0.88013000  1.0
  C  C520  1  0.30585000  0.87834000  0.86659000  1.0
  C  C521  1  0.31092000  0.85680000  0.84326000  1.0
  C  C522  1  0.11717000  0.22135000  0.12759000  1.0
  C  C523  1  0.10675000  0.21884000  0.15316000  1.0
  C  C524  1  0.13894000  0.19078000  0.17017000  1.0
  C  C525  1  0.18207000  0.16471000  0.16183000  1.0
  C  C526  1  0.19212000  0.16726000  0.13601000  1.0
  C  C527  1  0.15992000  0.19553000  0.11907000  1.0
  C  C528  1  0.21652000  0.13568000  0.18007000  1.0
  C  C529  1  0.25805000  0.13133000  0.17892000  1.0
  C  C530  1  0.29034000  0.10455000  0.19624000  1.0
  C  C531  1  0.28165000  0.08193000  0.21496000  1.0
  C  C532  1  0.24055000  0.08589000  0.21639000  1.0
  C  C533  1  0.20809000  0.11258000  0.19898000  1.0
  C  C534  1  0.19788000  0.62220000  0.09428000  1.0
  C  C535  1  0.20294000  0.60727000  0.11957000  1.0
  C  C536  1  0.16658000  0.61594000  0.13426000  1.0
  C  C537  1  0.12473000  0.63920000  0.12368000  1.0
  C  C538  1  0.11989000  0.65442000  0.09835000  1.0
  C  C539  1  0.15623000  0.64627000  0.08383000  1.0
  C  C540  1  0.08626000  0.64706000  0.13888000  1.0
  C  C541  1  0.05468000  0.63917000  0.12803000  1.0
  C  C542  1  0.01834000  0.64654000  0.14224000  1.0
  C  C543  1  0.01288000  0.66220000  0.16731000  1.0
  C  C544  1  0.04394000  0.67040000  0.17832000  1.0
  C  C545  1  0.08073000  0.66256000  0.16421000  1.0
  C  C546  1  0.59857000  0.17335000  0.08012000  1.0
  C  C547  1  0.58442000  0.21778000  0.08061000  1.0
  C  C548  1  0.59988000  0.23469000  0.09936000  1.0
  C  C549  1  0.62974000  0.20733000  0.11792000  1.0
  C  C550  1  0.64362000  0.16271000  0.11732000  1.0
  C  C551  1  0.62809000  0.14587000  0.09855000  1.0
  C  C552  1  0.64645000  0.22522000  0.13773000  1.0
  C  C553  1  0.65752000  0.25686000  0.13122000  1.0
  C  C554  1  0.67319000  0.27373000  0.14986000  1.0
  C  C555  1  0.67800000  0.25935000  0.17518000  1.0
  C  C556  1  0.66715000  0.22791000  0.18195000  1.0
  C  C557  1  0.65146000  0.21087000  0.16331000  1.0
  C  C558  1  0.53823000  0.41609000  0.53704000  1.0
  C  C559  1  0.50617000  0.45999000  0.53694000  1.0
  C  C560  1  0.48263000  0.47912000  0.51457000  1.0
  C  C561  1  0.49078000  0.45453000  0.49201000  1.0
  C  C562  1  0.52325000  0.41047000  0.49231000  1.0
  C  C563  1  0.54677000  0.39142000  0.51468000  1.0
  C  C564  1  0.46509000  0.47448000  0.46841000  1.0
  C  C565  1  0.45053000  0.45152000  0.45329000  1.0
  C  C566  1  0.42603000  0.47028000  0.43122000  1.0
  C  C567  1  0.41570000  0.51210000  0.42393000  1.0
  C  C568  1  0.42999000  0.53533000  0.43870000  1.0
  C  C569  1  0.45459000  0.51665000  0.46088000  1.0
  C  C570  1  0.44905000  0.01489000  0.53890000  1.0
  C  C571  1  0.45008000  0.97745000  0.52972000  1.0
  C  C572  1  0.48457000  0.94813000  0.51439000  1.0
  C  C573  1  0.51864000  0.95579000  0.50807000  1.0
  C  C574  1  0.51723000  0.99361000  0.51738000  1.0
  C  C575  1  0.48265000  0.02294000  0.53268000  1.0
  C  C576  1  0.55566000  0.92423000  0.49210000  1.0
  C  C577  1  0.57342000  0.87933000  0.49590000  1.0
  C  C578  1  0.60810000  0.84952000  0.48090000  1.0
  C  C579  1  0.62558000  0.86401000  0.46198000  1.0
  C  C580  1  0.60844000  0.90852000  0.45802000  1.0
  C  C581  1  0.57357000  0.93858000  0.47299000  1.0
  C  C582  1  0.94343000  0.45403000  0.43887000  1.0
  C  C583  1  0.95676000  0.48496000  0.43881000  1.0
  C  C584  1  0.98194000  0.48637000  0.45895000  1.0
  C  C585  1  0.99417000  0.45676000  0.47941000  1.0
  C  C586  1  0.98101000  0.42547000  0.47912000  1.0
  C  C587  1  0.95578000  0.42417000  0.45899000  1.0
  C  C588  1  0.02022000  0.45871000  0.50106000  1.0
  C  C589  1  0.05432000  0.42033000  0.51156000  1.0
  C  C590  1  0.07856000  0.42213000  0.53209000  1.0
  C  C591  1  0.06914000  0.46212000  0.54241000  1.0
  C  C592  1  0.03533000  0.50058000  0.53219000  1.0
  C  C593  1  0.01096000  0.49891000  0.51157000  1.0
  C  C594  1  0.00146000  0.61923000  0.95449000  1.0
  C  C595  1  0.04131000  0.61122000  0.94450000  1.0
  C  C596  1  0.07625000  0.60081000  0.96091000  1.0
  C  C597  1  0.07181000  0.59789000  0.98752000  1.0
  C  C598  1  0.03167000  0.60598000  0.99738000  1.0
  C  C599  1  0.99664000  0.61690000  0.98097000  1.0
  C  C600  1  0.10885000  0.58666000  0.00494000  1.0
  C  C601  1  0.11941000  0.55553000  0.02435000  1.0
  C  C602  1  0.15427000  0.54503000  0.04081000  1.0
  C  C603  1  0.17871000  0.56564000  0.03824000  1.0
  C  C604  1  0.16827000  0.59699000  0.01917000  1.0
  C  C605  1  0.13360000  0.60729000  0.00247000  1.0
  C  C606  1  0.64044000  0.33936000  0.95654000  1.0
  C  C607  1  0.61011000  0.32553000  0.95925000  1.0
  C  C608  1  0.61583000  0.29528000  0.97816000  1.0
  C  C609  1  0.65197000  0.27855000  0.99463000  1.0
  C  C610  1  0.68180000  0.29332000  0.99204000  1.0
  C  C611  1  0.67604000  0.32351000  0.97311000  1.0
  C  C612  1  0.65967000  0.24442000  0.01366000  1.0
  C  C613  1  0.67540000  0.24508000  0.03831000  1.0
  C  C614  1  0.68539000  0.21130000  0.05554000  1.0
  C  C615  1  0.67989000  0.17654000  0.04841000  1.0
  C  C616  1  0.66331000  0.17596000  0.02420000  1.0
  C  C617  1  0.65326000  0.20976000  0.00688000  1.0
  C  C618  1  0.25772000  0.01379000  0.95546000  1.0
  C  C619  1  0.26731000  0.04372000  0.96669000  1.0
  C  C620  1  0.24545000  0.06607000  0.98885000  1.0
  C  C621  1  0.21379000  0.05864000  0.00009000  1.0
  C  C622  1  0.20475000  0.02812000  0.98879000  1.0
  C  C623  1  0.22655000  0.00590000  0.96659000  1.0
  C  C624  1  0.18991000  0.08303000  0.02329000  1.0
  C  C625  1  0.18175000  0.06187000  0.04348000  1.0
  C  C626  1  0.15902000  0.08500000  0.06523000  1.0
  C  C627  1  0.14407000  0.12942000  0.06708000  1.0
  C  C628  1  0.15188000  0.15087000  0.04711000  1.0
  C  C629  1  0.17477000  0.12779000  0.02532000  1.0
  C  C630  1  0.95708000  0.30547000  0.01724000  1.0
  C  C631  1  0.94653000  0.28937000  0.99562000  1.0
  C  C632  1  0.91046000  0.31688000  0.98074000  1.0
  C  C633  1  0.88469000  0.36097000  0.98721000  1.0
  C  C634  1  0.89569000  0.37695000  0.00888000  1.0
  C  C635  1  0.93151000  0.34928000  0.02389000  1.0
  C  C636  1  0.84626000  0.39007000  0.97153000  1.0
  C  C637  1  0.83819000  0.43169000  0.96473000  1.0
  C  C638  1  0.80193000  0.45910000  0.94995000  1.0
  C  C639  1  0.77311000  0.44551000  0.94203000  1.0
  C  C640  1  0.78058000  0.40430000  0.94887000  1.0
  C  C641  1  0.81717000  0.37656000  0.96343000  1.0
  C  C642  1  0.32697000  0.84779000  0.95298000  1.0
  C  C643  1  0.35141000  0.80377000  0.95933000  1.0
  C  C644  1  0.33078000  0.77972000  0.96372000  1.0
  C  C645  1  0.28538000  0.79938000  0.96175000  1.0
  C  C646  1  0.26112000  0.84359000  0.95513000  1.0
  C  C647  1  0.28183000  0.86763000  0.95085000  1.0
  C  C648  1  0.26346000  0.77394000  0.96680000  1.0
  C  C649  1  0.22928000  0.77873000  0.95102000  1.0
  C  C650  1  0.20870000  0.75475000  0.95582000  1.0
  C  C651  1  0.22185000  0.72581000  0.97640000  1.0
  C  C652  1  0.25572000  0.72078000  0.99230000  1.0
  C  C653  1  0.27650000  0.74470000  0.98751000  1.0
  C  C654  1  0.68884000  0.97831000  0.00356000  1.0
  C  C655  1  0.72730000  0.94406000  0.01345000  1.0
  C  C656  1  0.75771000  0.91244000  0.99701000  1.0
  C  C657  1  0.75008000  0.91475000  0.97044000  1.0
  C  C658  1  0.71106000  0.94903000  0.96072000  1.0
  C  C659  1  0.68064000  0.98056000  0.97720000  1.0
  C  C660  1  0.78320000  0.88209000  0.95294000  1.0
  C  C661  1  0.79367000  0.89501000  0.92978000  1.0
  C  C662  1  0.82629000  0.86442000  0.91392000  1.0
  C  C663  1  0.84876000  0.82068000  0.92092000  1.0
  C  C664  1  0.83799000  0.80726000  0.94359000  1.0
  C  C665  1  0.80544000  0.83784000  0.95958000  1.0
  C  C666  1  0.67681000  0.30795000  0.63491000  1.0
  C  C667  1  0.69390000  0.32978000  0.64862000  1.0
  C  C668  1  0.73863000  0.31390000  0.64880000  1.0
  C  C669  1  0.76692000  0.27591000  0.63522000  1.0
  C  C670  1  0.74940000  0.25415000  0.62152000  1.0
  C  C671  1  0.70463000  0.27009000  0.62138000  1.0
  C  C672  1  0.81440000  0.25930000  0.63524000  1.0
  C  C673  1  0.83868000  0.24353000  0.61252000  1.0
  C  C674  1  0.88328000  0.22831000  0.61249000  1.0
  C  C675  1  0.90424000  0.22856000  0.63505000  1.0
  C  C676  1  0.88058000  0.24398000  0.65781000  1.0
  C  C677  1  0.83582000  0.25936000  0.65792000  1.0
  C  C678  1  0.27074000  0.84833000  0.65656000  1.0
  C  C679  1  0.24819000  0.88414000  0.64038000  1.0
  C  C680  1  0.27095000  0.89690000  0.62405000  1.0
  C  C681  1  0.31662000  0.87393000  0.62368000  1.0
  C  C682  1  0.33896000  0.83808000  0.64012000  1.0
  C  C683  1  0.31614000  0.82539000  0.65643000  1.0
  C  C684  1  0.34085000  0.88706000  0.60609000  1.0
  C  C685  1  0.37781000  0.85545000  0.59298000  1.0
  C  C686  1  0.40076000  0.86771000  0.57651000  1.0
  C  C687  1  0.38719000  0.91154000  0.57288000  1.0
  C  C688  1  0.35044000  0.94334000  0.58569000  1.0
  C  C689  1  0.32733000  0.93121000  0.60225000  1.0
  C  C690  1  0.84173000  0.86750000  0.67481000  1.0
  C  C691  1  0.88192000  0.82984000  0.67832000  1.0
  C  C692  1  0.90037000  0.79954000  0.65848000  1.0
  C  C693  1  0.87882000  0.80655000  0.63484000  1.0
  C  C694  1  0.83832000  0.84449000  0.63157000  1.0
  C  C695  1  0.81999000  0.87473000  0.65142000  1.0
  C  C696  1  0.89859000  0.77470000  0.61360000  1.0
  C  C697  1  0.89610000  0.78907000  0.58819000  1.0
  C  C698  1  0.91466000  0.75924000  0.56818000  1.0
  C  C699  1  0.93597000  0.71477000  0.57320000  1.0
  C  C700  1  0.93877000  0.69992000  0.59834000  1.0
  C  C701  1  0.92019000  0.72973000  0.61850000  1.0
  C  C702  1  0.48630000  0.99513000  0.61887000  1.0
  C  C703  1  0.49636000  0.00692000  0.64237000  1.0
  C  C704  1  0.53658000  0.00420000  0.64591000  1.0
  C  C705  1  0.56714000  0.98995000  0.62589000  1.0
  C  C706  1  0.55660000  0.97856000  0.60225000  1.0
  C  C707  1  0.51654000  0.98083000  0.59885000  1.0
  C  C708  1  0.61014000  0.98620000  0.62983000  1.0
  C  C709  1  0.62768000  0.00161000  0.61120000  1.0
  C  C710  1  0.66843000  0.99762000  0.61488000  1.0
  C  C711  1  0.69223000  0.97791000  0.63702000  1.0
  C  C712  1  0.67519000  0.96239000  0.65570000  1.0
  C  C713  1  0.63418000  0.96670000  0.65218000  1.0
  C  C714  1  0.95526000  0.37704000  0.67217000  1.0
  C  C715  1  0.99283000  0.36708000  0.65835000  1.0
  C  C716  1  0.00772000  0.39672000  0.65739000  1.0
  C  C717  1  0.98525000  0.43671000  0.67033000  1.0
  C  C718  1  0.94752000  0.44638000  0.68417000  1.0
  C  C719  1  0.93265000  0.41673000  0.68507000  1.0
  C  C720  1  0.00116000  0.46812000  0.66946000  1.0
  C  C721  1  0.00079000  0.49074000  0.69169000  1.0
  C  C722  1  0.01578000  0.52029000  0.69087000  1.0
  C  C723  1  0.03127000  0.52769000  0.66793000  1.0
  C  C724  1  0.03179000  0.50547000  0.64569000  1.0
  C  C725  1  0.01684000  0.47578000  0.64643000  1.0
  C  C726  1  0.33296000  0.64498000  0.66640000  1.0
  C  C727  1  0.32708000  0.61384000  0.65346000  1.0
  C  C728  1  0.35879000  0.56995000  0.65490000  1.0
  C  C729  1  0.39676000  0.55665000  0.66938000  1.0
  C  C730  1  0.40218000  0.58823000  0.68244000  1.0
  C  C731  1  0.37048000  0.63207000  0.68095000  1.0
  C  C732  1  0.43060000  0.51012000  0.67087000  1.0
  C  C733  1  0.45108000  0.49181000  0.69433000  1.0
  C  C734  1  0.48324000  0.44815000  0.69573000  1.0
  C  C735  1  0.49539000  0.42220000  0.67380000  1.0
  C  C736  1  0.47528000  0.43990000  0.65033000  1.0
  C  C737  1  0.44297000  0.48369000  0.64885000  1.0
  C  C738  1  0.55344000  0.92446000  0.35790000  1.0
  C  C739  1  0.54235000  0.90876000  0.33631000  1.0
  C  C740  1  0.50508000  0.93622000  0.32227000  1.0
  C  C741  1  0.47848000  0.97983000  0.32964000  1.0
  C  C742  1  0.48963000  0.99508000  0.35160000  1.0
  C  C743  1  0.52689000  0.96758000  0.36560000  1.0
  C  C744  1  0.43991000  0.00953000  0.31414000  1.0
  C  C745  1  0.43034000  0.05234000  0.30930000  1.0
  C  C746  1  0.39436000  0.08022000  0.29448000  1.0
  C  C747  1  0.36754000  0.06580000  0.28428000  1.0
  C  C748  1  0.37668000  0.02332000  0.28889000  1.0
  C  C749  1  0.41266000  0.99527000  0.30379000  1.0
  C  C750  1  0.94040000  0.47654000  0.33626000  1.0
  C  C751  1  0.96779000  0.47034000  0.31548000  1.0
  C  C752  1  0.98564000  0.49728000  0.31233000  1.0
  C  C753  1  0.97639000  0.53071000  0.33001000  1.0
  C  C754  1  0.94850000  0.53685000  0.35071000  1.0
  C  C755  1  0.93073000  0.50990000  0.35382000  1.0
  C  C756  1  0.99628000  0.55860000  0.32719000  1.0
  C  C757  1  0.01161000  0.57035000  0.34889000  1.0
  C  C758  1  0.03024000  0.59662000  0.34640000  1.0
  C  C759  1  0.03396000  0.61142000  0.32229000  1.0
  C  C760  1  0.01905000  0.59993000  0.30051000  1.0
  C  C761  1  0.00027000  0.57360000  0.30290000  1.0
  C  C762  1  0.60622000  0.36038000  0.28228000  1.0
  C  C763  1  0.57677000  0.40415000  0.27742000  1.0
  C  C764  1  0.56223000  0.43425000  0.29749000  1.0
  C  C765  1  0.57697000  0.42089000  0.32271000  1.0
  C  C766  1  0.60715000  0.37688000  0.32727000  1.0
  C  C767  1  0.62170000  0.34689000  0.30718000  1.0
  C  C768  1  0.56032000  0.45246000  0.34425000  1.0
  C  C769  1  0.58825000  0.45018000  0.36405000  1.0
  C  C770  1  0.57236000  0.47930000  0.38457000  1.0
  C  C771  1  0.52857000  0.51112000  0.38557000  1.0
  C  C772  1  0.50047000  0.51399000  0.36595000  1.0
  C  C773  1  0.51620000  0.48474000  0.34540000  1.0
  C  C774  1  0.15616000  0.63603000  0.29720000  1.0
  C  C775  1  0.20014000  0.62320000  0.29475000  1.0
  C  C776  1  0.22406000  0.62223000  0.31623000  1.0
  C  C777  1  0.20431000  0.63401000  0.34052000  1.0
  C  C778  1  0.16002000  0.64699000  0.34277000  1.0
  C  C779  1  0.13613000  0.64802000  0.32123000  1.0
  C  C780  1  0.22993000  0.63236000  0.36340000  1.0
  C  C781  1  0.22464000  0.61586000  0.38680000  1.0
  C  C782  1  0.24918000  0.61369000  0.40823000  1.0
  C  C783  1  0.27923000  0.62793000  0.40664000  1.0
  C  C784  1  0.28473000  0.64459000  0.38355000  1.0
  C  C785  1  0.26023000  0.64677000  0.36199000  1.0
  C  C786  1  0.67232000  0.15413000  0.30799000  1.0
  C  C787  1  0.64534000  0.14665000  0.32414000  1.0
  C  C788  1  0.66097000  0.10632000  0.33596000  1.0
  C  C789  1  0.70392000  0.07284000  0.33181000  1.0
  C  C790  1  0.73079000  0.08064000  0.31548000  1.0
  C  C791  1  0.71505000  0.12105000  0.30365000  1.0
  C  C792  1  0.72057000  0.03018000  0.34466000  1.0
  C  C793  1  0.76258000  0.00854000  0.35523000  1.0
  C  C794  1  0.77786000  0.96884000  0.36778000  1.0
  C  C795  1  0.75152000  0.95024000  0.36995000  1.0
  C  C796  1  0.70982000  0.97116000  0.35936000  1.0
  C  C797  1  0.69440000  0.01097000  0.34676000  1.0
  C  C798  1  0.17522000  0.12974000  0.32040000  1.0
  C  C799  1  0.17002000  0.15455000  0.34233000  1.0
  C  C800  1  0.12857000  0.18180000  0.35231000  1.0
  C  C801  1  0.09175000  0.18450000  0.34049000  1.0
  C  C802  1  0.09734000  0.15962000  0.31835000  1.0
  C  C803  1  0.13881000  0.13243000  0.30839000  1.0
  C  C804  1  0.04778000  0.21270000  0.35138000  1.0
  C  C805  1  0.01781000  0.19789000  0.35264000  1.0
  C  C806  1  0.97650000  0.22420000  0.36296000  1.0
  C  C807  1  0.96455000  0.26552000  0.37216000  1.0
  C  C808  1  0.99392000  0.28077000  0.37100000  1.0
  C  C809  1  0.03544000  0.25446000  0.36068000  1.0
  N  N810  1  0.87973000  0.72557000  0.95748000  1.0
  N  N811  1  0.85895000  0.64846000  0.96108000  1.0
  N  N812  1  0.93488000  0.64001000  0.92444000  1.0
  N  N813  1  0.83494000  0.70441000  0.90996000  1.0
  N  N814  1  0.72573000  0.37915000  0.93523000  1.0
  N  N815  1  0.64075000  0.47086000  0.94563000  1.0
  N  N816  1  0.63246000  0.39374000  0.92024000  1.0
  N  N817  1  0.67383000  0.44081000  0.88817000  1.0
  N  N818  1  0.36622000  0.89266000  0.94607000  1.0
  N  N819  1  0.39648000  0.94973000  0.91436000  1.0
  N  N820  1  0.29724000  0.97360000  0.91325000  1.0
  N  N821  1  0.36892000  0.88820000  0.88496000  1.0
  N  N822  1  0.12347000  0.23428000  0.05046000  1.0
  N  N823  1  0.02605000  0.25363000  0.04411000  1.0
  N  N824  1  0.04675000  0.33245000  0.04750000  1.0
  N  N825  1  0.05584000  0.27587000  0.09682000  1.0
  N  N826  1  0.20989000  0.64021000  0.01588000  1.0
  N  N827  1  0.27993000  0.66715000  0.03125000  1.0
  N  N828  1  0.31111000  0.57103000  0.01187000  1.0
  N  N829  1  0.26774000  0.60155000  0.06723000  1.0
  N  N830  1  0.65637000  0.10930000  0.00949000  1.0
  N  N831  1  0.63336000  0.04117000  0.03310000  1.0
  N  N832  1  0.57499000  0.10410000  0.98844000  1.0
  N  N833  1  0.56976000  0.14240000  0.04442000  1.0
  N  N834  1  0.49891000  0.39073000  0.60933000  1.0
  N  N835  1  0.56880000  0.29802000  0.58700000  1.0
  N  N836  1  0.59287000  0.33818000  0.63490000  1.0
  N  N837  1  0.58174000  0.37989000  0.57908000  1.0
  N  N838  1  0.41182000  0.99786000  0.61305000  1.0
  N  N839  1  0.32869000  0.09224000  0.61983000  1.0
  N  N840  1  0.32706000  0.02525000  0.57963000  1.0
  N  N841  1  0.38512000  0.06883000  0.56847000  1.0
  N  N842  1  0.06037000  0.51978000  0.60263000  1.0
  N  N843  1  0.07171000  0.60124000  0.58988000  1.0
  N  N844  1  0.97914000  0.61619000  0.60714000  1.0
  N  N845  1  0.01748000  0.57542000  0.55204000  1.0
  N  N846  1  0.80669000  0.92443000  0.71186000  1.0
  N  N847  1  0.72014000  0.92332000  0.69682000  1.0
  N  N848  1  0.71540000  0.01287000  0.71193000  1.0
  N  N849  1  0.73578000  0.94090000  0.75477000  1.0
  N  N850  1  0.92002000  0.24365000  0.70030000  1.0
  N  N851  1  0.92781000  0.32116000  0.67453000  1.0
  N  N852  1  0.00632000  0.24914000  0.70754000  1.0
  N  N853  1  0.91847000  0.31826000  0.73524000  1.0
  N  N854  1  0.22836000  0.82339000  0.68666000  1.0
  N  N855  1  0.27427000  0.72743000  0.66355000  1.0
  N  N856  1  0.21095000  0.75153000  0.71177000  1.0
  N  N857  1  0.30340000  0.74473000  0.71813000  1.0
  N  N858  1  0.25308000  0.07813000  0.30211000  1.0
  N  N859  1  0.25743000  0.98628000  0.30430000  1.0
  N  N860  1  0.32491000  0.99774000  0.27023000  1.0
  N  N861  1  0.22602000  0.04396000  0.25276000  1.0
  N  N862  1  0.11284000  0.63625000  0.25650000  1.0
  N  N863  1  0.02676000  0.70754000  0.28528000  1.0
  N  N864  1  0.02687000  0.62900000  0.25584000  1.0
  N  N865  1  0.03044000  0.70457000  0.22426000  1.0
  N  N866  1  0.64152000  0.23087000  0.28699000  1.0
  N  N867  1  0.72571000  0.23287000  0.26737000  1.0
  N  N868  1  0.63203000  0.30134000  0.24627000  1.0
  N  N869  1  0.67583000  0.20147000  0.22959000  1.0
  N  N870  1  0.41875000  0.57493000  0.36776000  1.0
  N  N871  1  0.34208000  0.67019000  0.38085000  1.0
  N  N872  1  0.44054000  0.65045000  0.37737000  1.0
  N  N873  1  0.41077000  0.61343000  0.42413000  1.0
  N  N874  1  0.62551000  0.87515000  0.38291000  1.0
  N  N875  1  0.66004000  0.93643000  0.36201000  1.0
  N  N876  1  0.72258000  0.85210000  0.39551000  1.0
  N  N877  1  0.64209000  0.93408000  0.42203000  1.0
  N  N878  1  0.90882000  0.42491000  0.34407000  1.0
  N  N879  1  0.96927000  0.35935000  0.38741000  1.0
  N  N880  1  0.87035000  0.38286000  0.38346000  1.0
  N  N881  1  0.89249000  0.45460000  0.40245000  1.0
