# generated using pymatgen
data_CoH16C26(NO4)2
_symmetry_space_group_name_H-M   'P 1'
_cell_length_a   32.06040000
_cell_length_b   32.10917583
_cell_length_c   53.56200000
_cell_angle_alpha   90.00278057
_cell_angle_beta   90.08000000
_cell_angle_gamma   60.13445704
_symmetry_Int_Tables_number   1
_chemical_formula_structural   CoH16C26(NO4)2
_chemical_formula_sum   'Co18 H288 C468 N36 O144'
_cell_volume   47815.84012778
_cell_formula_units_Z   18
loop_
 _symmetry_equiv_pos_site_id
 _symmetry_equiv_pos_as_xyz
  1  'x, y, z'
loop_
 _atom_site_type_symbol
 _atom_site_label
 _atom_site_symmetry_multiplicity
 _atom_site_fract_x
 _atom_site_fract_y
 _atom_site_fract_z
 _atom_site_occupancy
  Co  Co0  1  0.67939000  0.08648000  0.02556000  1.0
  Co  Co1  1  0.25285000  0.10022000  0.28994000  1.0
  Co  Co2  1  0.57261000  0.02477000  0.35853000  1.0
  Co  Co3  1  0.75393000  0.33047000  0.95599000  1.0
  Co  Co4  1  0.31630000  0.93510000  0.95662000  1.0
  Co  Co5  1  0.92203000  0.76713000  0.95651000  1.0
  Co  Co6  1  0.24111000  0.69156000  0.02638000  1.0
  Co  Co7  1  0.07333000  0.25345000  0.02577000  1.0
  Co  Co8  1  0.41995000  0.99829000  0.62287000  1.0
  Co  Co9  1  0.98210000  0.60357000  0.62308000  1.0
  Co  Co10  1  0.58782000  0.43465000  0.62339000  1.0
  Co  Co11  1  0.90736000  0.35931000  0.69270000  1.0
  Co  Co12  1  0.34560000  0.75389000  0.69228000  1.0
  Co  Co13  1  0.73920000  0.92181000  0.69300000  1.0
  Co  Co14  1  0.08627000  0.66248000  0.28987000  1.0
  Co  Co15  1  0.64696000  0.26920000  0.28961000  1.0
  Co  Co16  1  0.01066000  0.41900000  0.35973000  1.0
  Co  Co17  1  0.40544000  0.58749000  0.35972000  1.0
  H  H18  1  0.41039000  0.01906000  0.93940000  1.0
  H  H19  1  0.73308000  0.07611000  0.11310000  1.0
  H  H20  1  0.73745000  0.04905000  0.07027000  1.0
  H  H21  1  0.53939000  0.09860000  0.98007000  1.0
  H  H22  1  0.59794000  0.12250000  0.99167000  1.0
  H  H23  1  0.64675000  0.02514000  0.05250000  1.0
  H  H24  1  0.41273000  0.08123000  0.59231000  1.0
  H  H25  1  0.43958000  0.08576000  0.54984000  1.0
  H  H26  1  0.29374000  0.13837000  0.66836000  1.0
  H  H27  1  0.37574000  0.07896000  0.65697000  1.0
  H  H28  1  0.32604000  0.03306000  0.59530000  1.0
  H  H29  1  0.24208000  0.09241000  0.60551000  1.0
  H  H30  1  0.75193000  0.04915000  0.64761000  1.0
  H  H31  1  0.68061000  0.01506000  0.72087000  1.0
  H  H32  1  0.65567000  0.09917000  0.71086000  1.0
  H  H33  1  0.17760000  0.09164000  0.25957000  1.0
  H  H34  1  0.28951000  0.12247000  0.24563000  1.0
  H  H35  1  0.14641000  0.11694000  0.21683000  1.0
  H  H36  1  0.21606000  0.05541000  0.32371000  1.0
  H  H37  1  0.52955000  0.08073000  0.44561000  1.0
  H  H38  1  0.55210000  0.08398000  0.40261000  1.0
  H  H39  1  0.40626000  0.13937000  0.96397000  1.0
  H  H40  1  0.12565000  0.08790000  0.62956000  1.0
  H  H41  1  0.14555000  0.06586000  0.65697000  1.0
  H  H42  1  0.75222000  0.12216000  0.65870000  1.0
  H  H43  1  0.80423000  0.12449000  0.15142000  1.0
  H  H44  1  0.28599000  0.09060000  0.12526000  1.0
  H  H45  1  0.38022000  0.13214000  0.47144000  1.0
  H  H46  1  0.15299000  0.09248000  0.03495000  1.0
  H  H47  1  0.21366000  0.01449000  0.01702000  1.0
  H  H48  1  0.50732000  0.03919000  0.66521000  1.0
  H  H49  1  0.58506000  0.01978000  0.68392000  1.0
  H  H50  1  0.74077000  0.07749000  0.35315000  1.0
  H  H51  1  0.70314000  0.11777000  0.37214000  1.0
  H  H52  1  0.54894000  0.12755000  0.29735000  1.0
  H  H53  1  0.29415000  0.13469000  0.13296000  1.0
  H  H54  1  0.59536000  0.16103000  0.05571000  1.0
  H  H55  1  0.73579000  0.16445000  0.21631000  1.0
  H  H56  1  0.26125000  0.14754000  0.20319000  1.0
  H  H57  1  0.38509000  0.14089000  0.99152000  1.0
  H  H58  1  0.78312000  0.17695000  0.13886000  1.0
  H  H59  1  0.58789000  0.17811000  0.14361000  1.0
  H  H60  1  0.41185000  0.15310000  0.48401000  1.0
  H  H61  1  0.83334000  0.15982000  0.03463000  1.0
  H  H62  1  0.26599000  0.15541000  0.96252000  1.0
  H  H63  1  0.22518000  0.15892000  0.94349000  1.0
  H  H64  1  0.34705000  0.18152000  0.36591000  1.0
  H  H65  1  0.34140000  0.14934000  0.38738000  1.0
  H  H66  1  0.56651000  0.18855000  0.27981000  1.0
  H  H67  1  0.12660000  0.18681000  0.33316000  1.0
  H  H68  1  0.58923000  0.19228000  0.09837000  1.0
  H  H69  1  0.06224000  0.20843000  0.11267000  1.0
  H  H70  1  0.03387000  0.22019000  0.64673000  1.0
  H  H71  1  0.73061000  0.19535000  0.25897000  1.0
  H  H72  1  0.22064000  0.21175000  0.65717000  1.0
  H  H73  1  0.53152000  0.19640000  0.66038000  1.0
  H  H74  1  0.53445000  0.21581000  0.68779000  1.0
  H  H75  1  0.72027000  0.20335000  0.64164000  1.0
  H  H76  1  0.94167000  0.21313000  0.32538000  1.0
  H  H77  1  0.92004000  0.21487000  0.35284000  1.0
  H  H78  1  0.58884000  0.21239000  0.18440000  1.0
  H  H79  1  0.10580000  0.19503000  0.19432000  1.0
  H  H80  1  0.79904000  0.19839000  0.05525000  1.0
  H  H81  1  0.63809000  0.21373000  0.98264000  1.0
  H  H82  1  0.03563000  0.23171000  0.06981000  1.0
  H  H83  1  0.72864000  0.23162000  0.32353000  1.0
  H  H84  1  0.07270000  0.23362000  0.15392000  1.0
  H  H85  1  0.99377000  0.23070000  0.96478000  1.0
  H  H86  1  0.17595000  0.24106000  0.09993000  1.0
  H  H87  1  0.79890000  0.27611000  0.86899000  1.0
  H  H88  1  0.74504000  0.41440000  0.92584000  1.0
  H  H89  1  0.77431000  0.27259000  0.91147000  1.0
  H  H90  1  0.76956000  0.42073000  0.88301000  1.0
  H  H91  1  0.62984000  0.47276000  0.00149000  1.0
  H  H92  1  0.71144000  0.41207000  0.98989000  1.0
  H  H93  1  0.65912000  0.36576000  0.92951000  1.0
  H  H94  1  0.57571000  0.42429000  0.94082000  1.0
  H  H95  1  0.26125000  0.94641000  0.86925000  1.0
  H  H96  1  0.39972000  0.86076000  0.92611000  1.0
  H  H97  1  0.25753000  0.97302000  0.91217000  1.0
  H  H98  1  0.40531000  0.83008000  0.88336000  1.0
  H  H99  1  0.45744000  0.92081000  0.00187000  1.0
  H  H100  1  0.39755000  0.89845000  0.99058000  1.0
  H  H101  1  0.35065000  0.99465000  0.92927000  1.0
  H  H102  1  0.93271000  0.81016000  0.86916000  1.0
  H  H103  1  0.84635000  0.75878000  0.92636000  1.0
  H  H104  1  0.95991000  0.78692000  0.91189000  1.0
  H  H105  1  0.81622000  0.78227000  0.88332000  1.0
  H  H106  1  0.90695000  0.64190000  0.00292000  1.0
  H  H107  1  0.88444000  0.72375000  0.99086000  1.0
  H  H108  1  0.98088000  0.67283000  0.92973000  1.0
  H  H109  1  0.00695000  0.58926000  0.94127000  1.0
  H  H110  1  0.19897000  0.74554000  0.11382000  1.0
  H  H111  1  0.24950000  0.60800000  0.05677000  1.0
  H  H112  1  0.22184000  0.74938000  0.07098000  1.0
  H  H113  1  0.22420000  0.60243000  0.09948000  1.0
  H  H114  1  0.36720000  0.55219000  0.98034000  1.0
  H  H115  1  0.28517000  0.61052000  0.99243000  1.0
  H  H116  1  0.33567000  0.65792000  0.05315000  1.0
  H  H117  1  0.41955000  0.60121000  0.04157000  1.0
  H  H118  1  0.58870000  0.99879000  0.04186000  1.0
  H  H119  1  0.14675000  0.26405000  0.05671000  1.0
  H  H120  1  0.08975000  0.37974000  0.98105000  1.0
  H  H121  1  0.11184000  0.29761000  0.99237000  1.0
  H  H122  1  0.01259000  0.34750000  0.05232000  1.0
  H  H123  1  0.98668000  0.43130000  0.04133000  1.0
  H  H124  1  0.46461000  0.94258000  0.53590000  1.0
  H  H125  1  0.43994000  0.93989000  0.57851000  1.0
  H  H126  1  0.92666000  0.61408000  0.53598000  1.0
  H  H127  1  0.06523000  0.52798000  0.59274000  1.0
  H  H128  1  0.92380000  0.64162000  0.57857000  1.0
  H  H129  1  0.06991000  0.49640000  0.55032000  1.0
  H  H130  1  0.12223000  0.59024000  0.66888000  1.0
  H  H131  1  0.06316000  0.56708000  0.65718000  1.0
  H  H132  1  0.01661000  0.66308000  0.59579000  1.0
  H  H133  1  0.07538000  0.68851000  0.60644000  1.0
  H  H134  1  0.59695000  0.47927000  0.53621000  1.0
  H  H135  1  0.51163000  0.42680000  0.59350000  1.0
  H  H136  1  0.62527000  0.45465000  0.57866000  1.0
  H  H137  1  0.48033000  0.45175000  0.55075000  1.0
  H  H138  1  0.57446000  0.30870000  0.67004000  1.0
  H  H139  1  0.55095000  0.39078000  0.65797000  1.0
  H  H140  1  0.64586000  0.34091000  0.59620000  1.0
  H  H141  1  0.67168000  0.25709000  0.60723000  1.0
  H  H142  1  0.86370000  0.41326000  0.77994000  1.0
  H  H143  1  0.91580000  0.27545000  0.72290000  1.0
  H  H144  1  0.88689000  0.41720000  0.73723000  1.0
  H  H145  1  0.89197000  0.26902000  0.76588000  1.0
  H  H146  1  0.95179000  0.27851000  0.65856000  1.0
  H  H147  1  0.00149000  0.32543000  0.71982000  1.0
  H  H148  1  0.08553000  0.26757000  0.70897000  1.0
  H  H149  1  0.40285000  0.74376000  0.77897000  1.0
  H  H150  1  0.26225000  0.82745000  0.72323000  1.0
  H  H151  1  0.40545000  0.71656000  0.73629000  1.0
  H  H152  1  0.25752000  0.85843000  0.76583000  1.0
  H  H153  1  0.20313000  0.76948000  0.64788000  1.0
  H  H154  1  0.26307000  0.79171000  0.65912000  1.0
  H  H155  1  0.31271000  0.69257000  0.71917000  1.0
  H  H156  1  0.25330000  0.66782000  0.70887000  1.0
  H  H157  1  0.73120000  0.87342000  0.77956000  1.0
  H  H158  1  0.81369000  0.93130000  0.72360000  1.0
  H  H159  1  0.70289000  0.89870000  0.73713000  1.0
  H  H160  1  0.84476000  0.90607000  0.76637000  1.0
  H  H161  1  0.77498000  0.96690000  0.65886000  1.0
  H  H162  1  0.13329000  0.60612000  0.20324000  1.0
  H  H163  1  0.07829000  0.74575000  0.25927000  1.0
  H  H164  1  0.10789000  0.60356000  0.24570000  1.0
  H  H165  1  0.10542000  0.75038000  0.21685000  1.0
  H  H166  1  0.96033000  0.80489000  0.33425000  1.0
  H  H167  1  0.04224000  0.74443000  0.32327000  1.0
  H  H168  1  0.99210000  0.69646000  0.26264000  1.0
  H  H169  1  0.90822000  0.75505000  0.27326000  1.0
  H  H170  1  0.59123000  0.28013000  0.20256000  1.0
  H  H171  1  0.58816000  0.30732000  0.24529000  1.0
  H  H172  1  0.78731000  0.25513000  0.33564000  1.0
  H  H173  1  0.68094000  0.32958000  0.26297000  1.0
  H  H174  1  0.73913000  0.35543000  0.27406000  1.0
  H  H175  1  0.23876000  0.97329000  0.33498000  1.0
  H  H176  1  0.31226000  0.00673000  0.26246000  1.0
  H  H177  1  0.33733000  0.92269000  0.27270000  1.0
  H  H178  1  0.58266000  0.94132000  0.38961000  1.0
  H  H179  1  0.55809000  0.93609000  0.43255000  1.0
  H  H180  1  0.69856000  0.88327000  0.31355000  1.0
  H  H181  1  0.61657000  0.94222000  0.32543000  1.0
  H  H182  1  0.66745000  0.99266000  0.38463000  1.0
  H  H183  1  0.75119000  0.93572000  0.37309000  1.0
  H  H184  1  0.06549000  0.40967000  0.44689000  1.0
  H  H185  1  0.92688000  0.49402000  0.38997000  1.0
  H  H186  1  0.06922000  0.38230000  0.40418000  1.0
  H  H187  1  0.92117000  0.52534000  0.43260000  1.0
  H  H188  1  0.86998000  0.43265000  0.31429000  1.0
  H  H189  1  0.92987000  0.45501000  0.32553000  1.0
  H  H190  1  0.97567000  0.36016000  0.38740000  1.0
  H  H191  1  0.91594000  0.33569000  0.37728000  1.0
  H  H192  1  0.39593000  0.54285000  0.44686000  1.0
  H  H193  1  0.48050000  0.59686000  0.38995000  1.0
  H  H194  1  0.36859000  0.56615000  0.40414000  1.0
  H  H195  1  0.51060000  0.57363000  0.43304000  1.0
  H  H196  1  0.41777000  0.71368000  0.31291000  1.0
  H  H197  1  0.44149000  0.63162000  0.32498000  1.0
  H  H198  1  0.34750000  0.68116000  0.38713000  1.0
  H  H199  1  0.32176000  0.76506000  0.37622000  1.0
  H  H200  1  0.53883000  0.45047000  0.05764000  1.0
  H  H201  1  0.54895000  0.49471000  0.06085000  1.0
  H  H202  1  0.43144000  0.55942000  0.96073000  1.0
  H  H203  1  0.51363000  0.50911000  0.94514000  1.0
  H  H204  1  0.58117000  0.95177000  0.00725000  1.0
  H  H205  1  0.53097000  0.92058000  0.99022000  1.0
  H  H206  1  0.03047000  0.46089000  0.92182000  1.0
  H  H207  1  0.97624000  0.47042000  0.92475000  1.0
  H  H208  1  0.97701000  0.57673000  0.02229000  1.0
  H  H209  1  0.00888000  0.49436000  0.03758000  1.0
  H  H210  1  0.13961000  0.26120000  0.67445000  1.0
  H  H211  1  0.25712000  0.54840000  0.68406000  1.0
  H  H212  1  0.27809000  0.54796000  0.65658000  1.0
  H  H213  1  0.13067000  0.76790000  0.65885000  1.0
  H  H214  1  0.08121000  0.73597000  0.64170000  1.0
  H  H215  1  0.88014000  0.82915000  0.39315000  1.0
  H  H216  1  0.87049000  0.78450000  0.39054000  1.0
  H  H217  1  0.84458000  0.83934000  0.27739000  1.0
  H  H218  1  0.76258000  0.89019000  0.29317000  1.0
  H  H219  1  0.74611000  0.40224000  0.30869000  1.0
  H  H220  1  0.79611000  0.43346000  0.32593000  1.0
  H  H221  1  0.46019000  0.82735000  0.32336000  1.0
  H  H222  1  0.45816000  0.80714000  0.29603000  1.0
  H  H223  1  0.23985000  0.89943000  0.32446000  1.0
  H  H224  1  0.27273000  0.81810000  0.34151000  1.0
  H  H225  1  0.78310000  0.25979000  0.79799000  1.0
  H  H226  1  0.74037000  0.31276000  0.79043000  1.0
  H  H227  1  0.88801000  0.37662000  0.82110000  1.0
  H  H228  1  0.84871000  0.38168000  0.86119000  1.0
  H  H229  1  0.21157000  0.84512000  0.84334000  1.0
  H  H230  1  0.18996000  0.89778000  0.83095000  1.0
  H  H231  1  0.40481000  0.81144000  0.79725000  1.0
  H  H232  1  0.40608000  0.84527000  0.83813000  1.0
  H  H233  1  0.70790000  0.93162000  0.85825000  1.0
  H  H234  1  0.69860000  0.88826000  0.85054000  1.0
  H  H235  1  0.92003000  0.78724000  0.82811000  1.0
  H  H236  1  0.88574000  0.82649000  0.78800000  1.0
  H  H237  1  0.07892000  0.81790000  0.15151000  1.0
  H  H238  1  0.04737000  0.79685000  0.13895000  1.0
  H  H239  1  0.20402000  0.60314000  0.18559000  1.0
  H  H240  1  0.23986000  0.60139000  0.14488000  1.0
  H  H241  1  0.57223000  0.93597000  0.47776000  1.0
  H  H242  1  0.53619000  0.93886000  0.51856000  1.0
  H  H243  1  0.11732000  0.50783000  0.47213000  1.0
  H  H244  1  0.13788000  0.45569000  0.48499000  1.0
  H  H245  1  0.92026000  0.51260000  0.47797000  1.0
  H  H246  1  0.92283000  0.54645000  0.51863000  1.0
  H  H247  1  0.61943000  0.42238000  0.45836000  1.0
  H  H248  1  0.62870000  0.46586000  0.46584000  1.0
  H  H249  1  0.44073000  0.52962000  0.52817000  1.0
  H  H250  1  0.40743000  0.56835000  0.48784000  1.0
  H  H251  1  0.65691000  0.27254000  0.96414000  1.0
  H  H252  1  0.01463000  0.84707000  0.03462000  1.0
  H  H253  1  0.00949000  0.81344000  0.05540000  1.0
  H  H254  1  0.15419000  0.65085000  0.98377000  1.0
  H  H255  1  0.07652000  0.67014000  0.96504000  1.0
  H  H256  1  0.18663000  0.83254000  0.93005000  1.0
  H  H257  1  0.15630000  0.86966000  0.95210000  1.0
  H  H258  1  0.35924000  0.80480000  0.99743000  1.0
  H  H259  1  0.34002000  0.74635000  0.01603000  1.0
  H  H260  1  0.73872000  0.86433000  0.02540000  1.0
  H  H261  1  0.78076000  0.86315000  0.04259000  1.0
  H  H262  1  0.77909000  0.00646000  0.96328000  1.0
  H  H263  1  0.83922000  0.92798000  0.94549000  1.0
  H  H264  1  0.84983000  0.38437000  0.03906000  1.0
  H  H265  1  0.85311000  0.42215000  0.02036000  1.0
  H  H266  1  0.91545000  0.24825000  0.94678000  1.0
  H  H267  1  0.50516000  0.81988000  0.69618000  1.0
  H  H268  1  0.47522000  0.85646000  0.71850000  1.0
  H  H269  1  0.30149000  0.88505000  0.65179000  1.0
  H  H270  1  0.32012000  0.94409000  0.63337000  1.0
  H  H271  1  0.83988000  0.69056000  0.71873000  1.0
  H  H272  1  0.80317000  0.69765000  0.69630000  1.0
  H  H273  1  0.92794000  0.75749000  0.63331000  1.0
  H  H274  1  0.86946000  0.83475000  0.65208000  1.0
  H  H275  1  0.67649000  0.47970000  0.72238000  1.0
  H  H276  1  0.68085000  0.51376000  0.70157000  1.0
  H  H277  1  0.74300000  0.33811000  0.63100000  1.0
  H  H278  1  0.82056000  0.31942000  0.64963000  1.0
  H  H279  1  0.82835000  0.52932000  0.61294000  1.0
  H  H280  1  0.86366000  0.49052000  0.59267000  1.0
  H  H281  1  0.00214000  0.42001000  0.68554000  1.0
  H  H282  1  0.02070000  0.47881000  0.66685000  1.0
  H  H283  1  0.43280000  0.53082000  0.70474000  1.0
  H  H284  1  0.39270000  0.53494000  0.68503000  1.0
  H  H285  1  0.51071000  0.59556000  0.61495000  1.0
  H  H286  1  0.44997000  0.67390000  0.63252000  1.0
  H  H287  1  0.65164000  0.87314000  0.59505000  1.0
  H  H288  1  0.64584000  0.84064000  0.61627000  1.0
  H  H289  1  0.13195000  0.52932000  0.38906000  1.0
  H  H290  1  0.16597000  0.49107000  0.36825000  1.0
  H  H291  1  0.98962000  0.60379000  0.29774000  1.0
  H  H292  1  0.97106000  0.54494000  0.31639000  1.0
  H  H293  1  0.55029000  0.49280000  0.27467000  1.0
  H  H294  1  0.59193000  0.49053000  0.29261000  1.0
  H  H295  1  0.54701000  0.34842000  0.35165000  1.0
  H  H296  1  0.48695000  0.42668000  0.36964000  1.0
  H  H297  1  0.48494000  0.98251000  0.31731000  1.0
  H  H298  1  0.40699000  0.00178000  0.29893000  1.0
  H  H299  1  0.18308000  0.32620000  0.28192000  1.0
  H  H300  1  0.14455000  0.33106000  0.26100000  1.0
  H  H301  1  0.06838000  0.26417000  0.35192000  1.0
  H  H302  1  0.31283000  0.50676000  0.28226000  1.0
  H  H303  1  0.31754000  0.54021000  0.26120000  1.0
  H  H304  1  0.25043000  0.68412000  0.35158000  1.0
  H  H305  1  0.17300000  0.70259000  0.33287000  1.0
  C  C306  1  0.70222000  0.09557000  0.10100000  1.0
  C  C307  1  0.70429000  0.07941000  0.07667000  1.0
  C  C308  1  0.55930000  0.04641000  0.00993000  1.0
  C  C309  1  0.56128000  0.08288000  0.99656000  1.0
  C  C310  1  0.59459000  0.09676000  0.00325000  1.0
  C  C311  1  0.62220000  0.04195000  0.03706000  1.0
  C  C312  1  0.58946000  0.02668000  0.03084000  1.0
  C  C313  1  0.72493000  0.02029000  0.00556000  1.0
  C  C314  1  0.45510000  0.01406000  0.53941000  1.0
  C  C315  1  0.42312000  0.05145000  0.57964000  1.0
  C  C316  1  0.43838000  0.05397000  0.55542000  1.0
  C  C317  1  0.26088000  0.11994000  0.63809000  1.0
  C  C318  1  0.29959000  0.11684000  0.65178000  1.0
  C  C319  1  0.34652000  0.08309000  0.64519000  1.0
  C  C320  1  0.31866000  0.05715000  0.61089000  1.0
  C  C321  1  0.27088000  0.09052000  0.61692000  1.0
  C  C322  1  0.70125000  0.08124000  0.67809000  1.0
  C  C323  1  0.73663000  0.04290000  0.66424000  1.0
  C  C324  1  0.69698000  0.02282000  0.70524000  1.0
  C  C325  1  0.68234000  0.07071000  0.69931000  1.0
  C  C326  1  0.20124000  0.13456000  0.20643000  1.0
  C  C327  1  0.24294000  0.13399000  0.21475000  1.0
  C  C328  1  0.19639000  0.10277000  0.24686000  1.0
  C  C329  1  0.25932000  0.11937000  0.23902000  1.0
  C  C330  1  0.17847000  0.11757000  0.22261000  1.0
  C  C331  1  0.24131000  0.02640000  0.31199000  1.0
  C  C332  1  0.31961000  0.07814000  0.30983000  1.0
  C  C333  1  0.54117000  0.04944000  0.43385000  1.0
  C  C334  1  0.55512000  0.05092000  0.40943000  1.0
  C  C335  1  0.50143000  0.03485000  0.35182000  1.0
  C  C336  1  0.59346000  0.06964000  0.33793000  1.0
  C  C337  1  0.48282000  0.05643000  0.99080000  1.0
  C  C338  1  0.41400000  0.11546000  0.97973000  1.0
  C  C339  1  0.52868000  0.02685000  0.00080000  1.0
  C  C340  1  0.45487000  0.03986000  0.98129000  1.0
  C  C341  1  0.14205000  0.09513000  0.64542000  1.0
  C  C342  1  0.17702000  0.13594000  0.64744000  1.0
  C  C343  1  0.68262000  0.13147000  0.66934000  1.0
  C  C344  1  0.26582000  0.12567000  0.13383000  1.0
  C  C345  1  0.47893000  0.05001000  0.47640000  1.0
  C  C346  1  0.41440000  0.11856000  0.48095000  1.0
  C  C347  1  0.45844000  0.05214000  0.49870000  1.0
  C  C348  1  0.24067000  0.04592000  0.99015000  1.0
  C  C349  1  0.20420000  0.13121000  0.99246000  1.0
  C  C350  1  0.17240000  0.13492000  0.01121000  1.0
  C  C351  1  0.23604000  0.08932000  0.98192000  1.0
  C  C352  1  0.17674000  0.09179000  0.02039000  1.0
  C  C353  1  0.21144000  0.04728000  0.01019000  1.0
  C  C354  1  0.36505000  0.06351000  0.32272000  1.0
  C  C355  1  0.41133000  0.08032000  0.35179000  1.0
  C  C356  1  0.45478000  0.04213000  0.34344000  1.0
  C  C357  1  0.36830000  0.09057000  0.34233000  1.0
  C  C358  1  0.45242000  0.01258000  0.32468000  1.0
  C  C359  1  0.40786000  0.02368000  0.31409000  1.0
  C  C360  1  0.64484000  0.10649000  0.33292000  1.0
  C  C361  1  0.70327000  0.10529000  0.35334000  1.0
  C  C362  1  0.60672000  0.10102000  0.32459000  1.0
  C  C363  1  0.57924000  0.13007000  0.30447000  1.0
  C  C364  1  0.66133000  0.13744000  0.10910000  1.0
  C  C365  1  0.47749000  0.01257000  0.51486000  1.0
  C  C366  1  0.62507000  0.14218000  0.06854000  1.0
  C  C367  1  0.62166000  0.15995000  0.09284000  1.0
  C  C368  1  0.68917000  0.14751000  0.01837000  1.0
  C  C369  1  0.13357000  0.18206000  0.01909000  1.0
  C  C370  1  0.19272000  0.17127000  0.29744000  1.0
  C  C371  1  0.21082000  0.15159000  0.64700000  1.0
  C  C372  1  0.13268000  0.16350000  0.65708000  1.0
  C  C373  1  0.63324000  0.16515000  0.66928000  1.0
  C  C374  1  0.71372000  0.14638000  0.65902000  1.0
  C  C375  1  0.66126000  0.15826000  0.13394000  1.0
  C  C376  1  0.70209000  0.17796000  0.16549000  1.0
  C  C377  1  0.76952000  0.15503000  0.14682000  1.0
  C  C378  1  0.70202000  0.15920000  0.14296000  1.0
  C  C379  1  0.62018000  0.17824000  0.14943000  1.0
  C  C380  1  0.20868000  0.14978000  0.16085000  1.0
  C  C381  1  0.18006000  0.15631000  0.18181000  1.0
  C  C382  1  0.19110000  0.17088000  0.13856000  1.0
  C  C383  1  0.13011000  0.18739000  0.17878000  1.0
  C  C384  1  0.79620000  0.18800000  0.03636000  1.0
  C  C385  1  0.69623000  0.18680000  0.00974000  1.0
  C  C386  1  0.23975000  0.14357000  0.96161000  1.0
  C  C387  1  0.35495000  0.14485000  0.36848000  1.0
  C  C388  1  0.62756000  0.16987000  0.30417000  1.0
  C  C389  1  0.65555000  0.13857000  0.32324000  1.0
  C  C390  1  0.58917000  0.16500000  0.29453000  1.0
  C  C391  1  0.12178000  0.22218000  0.10984000  1.0
  C  C392  1  0.08076000  0.22180000  0.10114000  1.0
  C  C393  1  0.66344000  0.21937000  0.20599000  1.0
  C  C394  1  0.70069000  0.21437000  0.24628000  1.0
  C  C395  1  0.70356000  0.19682000  0.22198000  1.0
  C  C396  1  0.63575000  0.20888000  0.29627000  1.0
  C  C397  1  0.11671000  0.20894000  0.66747000  1.0
  C  C398  1  0.19626000  0.19757000  0.65712000  1.0
  C  C399  1  0.61624000  0.20966000  0.65978000  1.0
  C  C400  1  0.55761000  0.19979000  0.67177000  1.0
  C  C401  1  0.69533000  0.19300000  0.64904000  1.0
  C  C402  1  0.66241000  0.19836000  0.18140000  1.0
  C  C403  1  0.62077000  0.19800000  0.17289000  1.0
  C  C404  1  0.14169000  0.20184000  0.13487000  1.0
  C  C405  1  0.11115000  0.20989000  0.15558000  1.0
  C  C406  1  0.73343000  0.19346000  0.01856000  1.0
  C  C407  1  0.66738000  0.21731000  0.99038000  1.0
  C  C408  1  0.15396000  0.21780000  0.30614000  1.0
  C  C409  1  0.12332000  0.21956000  0.32553000  1.0
  C  C410  1  0.06533000  0.23542000  0.07667000  1.0
  C  C411  1  0.14467000  0.23930000  0.09381000  1.0
  C  C412  1  0.06671000  0.23918000  0.67678000  1.0
  C  C413  1  0.14976000  0.22590000  0.66724000  1.0
  C  C414  1  0.64538000  0.22591000  0.64915000  1.0
  C  C415  1  0.91259000  0.23866000  0.33706000  1.0
  C  C416  1  0.74339000  0.22635000  0.00904000  1.0
  C  C417  1  0.02803000  0.24157000  0.66336000  1.0
  C  C418  1  0.78641000  0.34875000  0.87240000  1.0
  C  C419  1  0.78564000  0.30775000  0.88063000  1.0
  C  C420  1  0.75559000  0.38481000  0.91301000  1.0
  C  C421  1  0.77135000  0.30579000  0.90493000  1.0
  C  C422  1  0.76995000  0.38818000  0.88871000  1.0
  C  C423  1  0.59579000  0.45265000  0.97257000  1.0
  C  C424  1  0.63505000  0.44988000  0.98557000  1.0
  C  C425  1  0.68172000  0.41596000  0.97862000  1.0
  C  C426  1  0.65244000  0.38996000  0.94497000  1.0
  C  C427  1  0.60493000  0.42330000  0.95146000  1.0
  C  C428  1  0.82585000  0.31824000  0.96283000  1.0
  C  C429  1  0.73157000  0.28618000  0.97596000  1.0
  C  C430  1  0.33309000  0.88508000  0.87292000  1.0
  C  C431  1  0.29228000  0.92682000  0.88123000  1.0
  C  C432  1  0.36987000  0.87978000  0.91339000  1.0
  C  C433  1  0.29056000  0.94270000  0.90560000  1.0
  C  C434  1  0.37295000  0.86235000  0.88905000  1.0
  C  C435  1  0.43849000  0.97238000  0.97178000  1.0
  C  C436  1  0.43554000  0.93669000  0.98540000  1.0
  C  C437  1  0.40153000  0.92366000  0.97887000  1.0
  C  C438  1  0.37503000  0.97780000  0.94477000  1.0
  C  C439  1  0.40863000  0.99208000  0.95075000  1.0
  C  C440  1  0.30551000  0.87466000  0.96373000  1.0
  C  C441  1  0.27187000  0.00120000  0.97690000  1.0
  C  C442  1  0.87180000  0.79868000  0.87268000  1.0
  C  C443  1  0.91371000  0.79774000  0.88096000  1.0
  C  C444  1  0.86567000  0.76901000  0.91351000  1.0
  C  C445  1  0.92950000  0.78410000  0.90538000  1.0
  C  C446  1  0.84830000  0.78287000  0.88909000  1.0
  C  C447  1  0.95959000  0.60855000  0.97339000  1.0
  C  C448  1  0.92350000  0.64748000  0.98660000  1.0
  C  C449  1  0.90993000  0.69428000  0.97945000  1.0
  C  C450  1  0.96398000  0.66577000  0.94537000  1.0
  C  C451  1  0.97880000  0.61814000  0.95198000  1.0
  C  C452  1  0.86240000  0.83869000  0.96346000  1.0
  C  C453  1  0.98869000  0.74519000  0.97649000  1.0
  C  C454  1  0.20816000  0.67422000  0.11002000  1.0
  C  C455  1  0.20992000  0.71470000  0.10180000  1.0
  C  C456  1  0.23920000  0.63763000  0.06954000  1.0
  C  C457  1  0.22412000  0.71646000  0.07747000  1.0
  C  C458  1  0.22472000  0.63455000  0.09386000  1.0
  C  C459  1  0.40033000  0.57249000  0.00965000  1.0
  C  C460  1  0.36149000  0.57450000  0.99658000  1.0
  C  C461  1  0.31460000  0.60716000  0.00377000  1.0
  C  C462  1  0.34288000  0.63375000  0.03761000  1.0
  C  C463  1  0.39065000  0.60145000  0.03097000  1.0
  C  C464  1  0.16997000  0.70187000  0.01932000  1.0
  C  C465  1  0.26227000  0.73667000  0.00626000  1.0
  C  C466  1  0.12779000  0.25292000  0.06930000  1.0
  C  C467  1  0.03530000  0.41253000  0.00981000  1.0
  C  C468  1  0.07222000  0.37386000  0.99683000  1.0
  C  C469  1  0.08563000  0.32691000  0.00362000  1.0
  C  C470  1  0.03002000  0.35483000  0.03704000  1.0
  C  C471  1  0.01524000  0.40256000  0.03072000  1.0
  C  C472  1  0.00733000  0.27490000  0.00528000  1.0
  C  C473  1  0.45302000  0.97380000  0.54772000  1.0
  C  C474  1  0.43795000  0.97264000  0.57193000  1.0
  C  C475  1  0.49121000  0.98744000  0.63021000  1.0
  C  C476  1  0.39802000  0.95373000  0.64294000  1.0
  C  C477  1  0.99819000  0.55235000  0.53968000  1.0
  C  C478  1  0.95787000  0.59460000  0.54788000  1.0
  C  C479  1  0.03546000  0.54723000  0.58000000  1.0
  C  C480  1  0.95661000  0.61093000  0.57208000  1.0
  C  C481  1  0.03807000  0.52933000  0.55580000  1.0
  C  C482  1  0.10368000  0.64150000  0.63867000  1.0
  C  C483  1  0.10083000  0.60569000  0.65222000  1.0
  C  C484  1  0.06720000  0.59226000  0.64548000  1.0
  C  C485  1  0.04086000  0.64631000  0.61134000  1.0
  C  C486  1  0.07401000  0.66105000  0.61756000  1.0
  C  C487  1  0.97122000  0.54323000  0.63037000  1.0
  C  C488  1  0.93749000  0.66999000  0.64305000  1.0
  C  C489  1  0.53603000  0.46783000  0.53991000  1.0
  C  C490  1  0.57827000  0.46643000  0.54797000  1.0
  C  C491  1  0.53078000  0.43715000  0.58060000  1.0
  C  C492  1  0.59467000  0.45206000  0.57225000  1.0
  C  C493  1  0.51281000  0.45174000  0.55634000  1.0
  C  C494  1  0.62546000  0.27588000  0.63976000  1.0
  C  C495  1  0.58966000  0.31454000  0.65326000  1.0
  C  C496  1  0.57600000  0.36150000  0.64630000  1.0
  C  C497  1  0.62941000  0.33358000  0.61194000  1.0
  C  C498  1  0.64442000  0.28587000  0.61840000  1.0
  C  C499  1  0.52826000  0.50631000  0.63040000  1.0
  C  C500  1  0.65477000  0.41239000  0.64312000  1.0
  C  C501  1  0.87542000  0.34094000  0.77644000  1.0
  C  C502  1  0.87623000  0.38187000  0.76816000  1.0
  C  C503  1  0.90536000  0.30505000  0.73571000  1.0
  C  C504  1  0.88988000  0.38399000  0.74375000  1.0
  C  C505  1  0.89137000  0.30162000  0.76009000  1.0
  C  C506  1  0.98105000  0.27475000  0.67019000  1.0
  C  C507  1  0.00889000  0.30130000  0.70425000  1.0
  C  C508  1  0.05670000  0.26868000  0.69790000  1.0
  C  C509  1  0.83622000  0.36980000  0.68543000  1.0
  C  C510  1  0.92886000  0.40451000  0.67291000  1.0
  C  C511  1  0.33028000  0.80403000  0.77585000  1.0
  C  C512  1  0.37120000  0.76269000  0.76730000  1.0
  C  C513  1  0.29247000  0.80869000  0.73576000  1.0
  C  C514  1  0.37237000  0.74654000  0.74306000  1.0
  C  C515  1  0.28986000  0.82627000  0.76004000  1.0
  C  C516  1  0.22355000  0.71630000  0.67726000  1.0
  C  C517  1  0.22566000  0.75287000  0.66407000  1.0
  C  C518  1  0.25971000  0.76586000  0.67059000  1.0
  C  C519  1  0.28777000  0.71005000  0.70396000  1.0
  C  C520  1  0.25429000  0.69563000  0.69789000  1.0
  C  C521  1  0.35603000  0.81457000  0.68508000  1.0
  C  C522  1  0.39000000  0.68788000  0.67194000  1.0
  C  C523  1  0.79049000  0.88754000  0.77656000  1.0
  C  C524  1  0.74916000  0.88751000  0.76811000  1.0
  C  C525  1  0.79509000  0.91981000  0.73623000  1.0
  C  C526  1  0.73279000  0.90219000  0.74384000  1.0
  C  C527  1  0.81295000  0.90506000  0.76049000  1.0
  C  C528  1  0.75007000  0.99584000  0.67074000  1.0
  C  C529  1  0.79946000  0.85075000  0.68558000  1.0
  C  C530  1  0.67260000  0.94372000  0.67302000  1.0
  C  C531  1  0.12249000  0.67811000  0.20663000  1.0
  C  C532  1  0.12100000  0.63756000  0.21496000  1.0
  C  C533  1  0.08932000  0.71577000  0.24666000  1.0
  C  C534  1  0.10552000  0.63646000  0.23908000  1.0
  C  C535  1  0.10481000  0.71831000  0.22249000  1.0
  C  C536  1  0.92724000  0.78417000  0.30509000  1.0
  C  C537  1  0.96606000  0.78177000  0.31837000  1.0
  C  C538  1  0.01294000  0.74794000  0.31177000  1.0
  C  C539  1  0.98484000  0.72103000  0.27799000  1.0
  C  C540  1  0.93708000  0.75439000  0.28409000  1.0
  C  C541  1  0.15750000  0.65158000  0.29738000  1.0
  C  C542  1  0.06402000  0.61797000  0.30976000  1.0
  C  C543  1  0.62263000  0.26100000  0.21437000  1.0
  C  C544  1  0.62121000  0.27712000  0.23864000  1.0
  C  C545  1  0.76792000  0.30761000  0.30596000  1.0
  C  C546  1  0.76567000  0.27103000  0.31910000  1.0
  C  C547  1  0.73229000  0.25738000  0.31212000  1.0
  C  C548  1  0.70532000  0.31250000  0.27845000  1.0
  C  C549  1  0.73812000  0.32752000  0.28494000  1.0
  C  C550  1  0.60243000  0.33509000  0.31001000  1.0
  C  C551  1  0.29049000  0.94095000  0.30496000  1.0
  C  C552  1  0.25458000  0.97939000  0.31852000  1.0
  C  C553  1  0.29548000  0.99910000  0.27794000  1.0
  C  C554  1  0.31011000  0.95127000  0.28397000  1.0
  C  C555  1  0.54060000  0.00858000  0.44250000  1.0
  C  C556  1  0.57187000  0.97134000  0.40217000  1.0
  C  C557  1  0.55781000  0.96846000  0.42662000  1.0
  C  C558  1  0.73186000  0.90507000  0.34206000  1.0
  C  C559  1  0.69293000  0.90643000  0.32941000  1.0
  C  C560  1  0.64606000  0.93947000  0.33648000  1.0
  C  C561  1  0.67455000  0.96777000  0.36946000  1.0
  C  C562  1  0.72227000  0.93526000  0.36286000  1.0
  C  C563  1  0.99347000  0.47067000  0.44313000  1.0
  C  C564  1  0.03438000  0.42895000  0.43492000  1.0
  C  C565  1  0.95672000  0.47525000  0.40273000  1.0
  C  C566  1  0.03612000  0.41263000  0.41067000  1.0
  C  C567  1  0.95357000  0.49306000  0.42700000  1.0
  C  C568  1  0.88836000  0.38174000  0.34466000  1.0
  C  C569  1  0.89162000  0.41708000  0.33087000  1.0
  C  C570  1  0.92564000  0.43012000  0.33737000  1.0
  C  C571  1  0.95154000  0.37672000  0.37179000  1.0
  C  C572  1  0.91793000  0.36241000  0.36582000  1.0
  C  C573  1  0.02160000  0.47925000  0.35223000  1.0
  C  C574  1  0.05527000  0.35228000  0.34001000  1.0
  C  C575  1  0.45596000  0.55573000  0.44348000  1.0
  C  C576  1  0.41452000  0.55584000  0.43512000  1.0
  C  C577  1  0.46157000  0.58606000  0.40275000  1.0
  C  C578  1  0.39864000  0.56951000  0.41072000  1.0
  C  C579  1  0.47894000  0.57232000  0.42718000  1.0
  C  C580  1  0.36750000  0.74639000  0.34350000  1.0
  C  C581  1  0.40292000  0.70779000  0.32981000  1.0
  C  C582  1  0.41667000  0.66083000  0.33675000  1.0
  C  C583  1  0.36378000  0.68857000  0.37133000  1.0
  C  C584  1  0.34881000  0.73631000  0.36495000  1.0
  C  C585  1  0.46518000  0.51611000  0.35259000  1.0
  C  C586  1  0.33865000  0.60943000  0.33992000  1.0
  C  C587  1  0.54589000  0.48427000  0.98174000  1.0
  C  C588  1  0.48947000  0.51653000  0.01565000  1.0
  C  C589  1  0.53687000  0.47947000  0.04644000  1.0
  C  C590  1  0.45009000  0.54268000  0.99993000  1.0
  C  C591  1  0.53483000  0.48853000  0.00735000  1.0
  C  C592  1  0.46000000  0.53941000  0.97405000  1.0
  C  C593  1  0.50731000  0.51053000  0.96505000  1.0
  C  C594  1  0.47048000  0.99056000  0.98061000  1.0
  C  C595  1  0.54559000  0.97697000  0.00035000  1.0
  C  C596  1  0.51683000  0.95903000  0.99037000  1.0
  C  C597  1  0.01654000  0.46264000  0.00084000  1.0
  C  C598  1  0.99222000  0.51958000  0.96713000  1.0
  C  C599  1  0.00307000  0.47253000  0.93613000  1.0
  C  C600  1  0.97898000  0.55874000  0.98298000  1.0
  C  C601  1  0.00970000  0.47410000  0.97527000  1.0
  C  C602  1  0.98552000  0.54843000  0.00885000  1.0
  C  C603  1  0.00400000  0.50098000  0.01767000  1.0
  C  C604  1  0.13437000  0.66094000  0.64790000  1.0
  C  C605  1  0.20696000  0.64912000  0.66745000  1.0
  C  C606  1  0.24743000  0.57178000  0.66793000  1.0
  C  C607  1  0.19154000  0.69820000  0.66834000  1.0
  C  C608  1  0.18051000  0.63097000  0.65775000  1.0
  C  C609  1  0.14520000  0.72940000  0.65862000  1.0
  C  C610  1  0.11692000  0.71099000  0.64856000  1.0
  C  C611  1  0.78162000  0.87456000  0.33245000  1.0
  C  C612  1  0.86577000  0.82125000  0.33946000  1.0
  C  C613  1  0.86551000  0.81493000  0.37952000  1.0
  C  C614  1  0.87717000  0.81579000  0.31398000  1.0
  C  C615  1  0.82087000  0.84876000  0.34845000  1.0
  C  C616  1  0.83847000  0.84135000  0.29734000  1.0
  C  C617  1  0.79128000  0.87051000  0.30646000  1.0
  C  C618  1  0.85634000  0.36354000  0.33586000  1.0
  C  C619  1  0.84397000  0.29766000  0.32570000  1.0
  C  C620  1  0.79835000  0.32718000  0.31542000  1.0
  C  C621  1  0.87182000  0.31426000  0.33534000  1.0
  C  C622  1  0.78153000  0.37705000  0.31580000  1.0
  C  C623  1  0.81017000  0.39502000  0.32589000  1.0
  C  C624  1  0.34753000  0.79640000  0.33415000  1.0
  C  C625  1  0.35828000  0.85728000  0.31405000  1.0
  C  C626  1  0.43569000  0.82061000  0.31247000  1.0
  C  C627  1  0.30910000  0.89085000  0.31383000  1.0
  C  C628  1  0.37698000  0.81268000  0.32368000  1.0
  C  C629  1  0.27840000  0.87557000  0.32416000  1.0
  C  C630  1  0.29738000  0.82888000  0.33416000  1.0
  C  C631  1  0.80830000  0.34820000  0.84785000  1.0
  C  C632  1  0.82317000  0.32388000  0.80486000  1.0
  C  C633  1  0.77415000  0.29680000  0.80051000  1.0
  C  C634  1  0.85499000  0.34123000  0.80137000  1.0
  C  C635  1  0.80064000  0.32716000  0.82663000  1.0
  C  C636  1  0.86354000  0.36263000  0.82236000  1.0
  C  C637  1  0.84057000  0.36597000  0.84535000  1.0
  C  C638  1  0.33292000  0.86462000  0.84801000  1.0
  C  C639  1  0.29193000  0.84504000  0.81650000  1.0
  C  C640  1  0.22483000  0.86733000  0.83540000  1.0
  C  C641  1  0.33143000  0.82498000  0.80045000  1.0
  C  C642  1  0.29217000  0.86359000  0.83907000  1.0
  C  C643  1  0.37302000  0.82554000  0.80886000  1.0
  C  C644  1  0.37379000  0.84505000  0.83238000  1.0
  C  C645  1  0.81184000  0.86561000  0.80113000  1.0
  C  C646  1  0.80245000  0.85019000  0.84406000  1.0
  C  C647  1  0.72622000  0.89797000  0.84817000  1.0
  C  C648  1  0.85165000  0.81909000  0.84770000  1.0
  C  C649  1  0.78316000  0.87261000  0.82225000  1.0
  C  C650  1  0.88157000  0.81117000  0.82678000  1.0
  C  C651  1  0.86189000  0.83410000  0.80376000  1.0
  C  C652  1  0.18713000  0.67464000  0.13483000  1.0
  C  C653  1  0.12651000  0.71615000  0.16610000  1.0
  C  C654  1  0.08278000  0.78325000  0.14705000  1.0
  C  C655  1  0.14515000  0.67673000  0.18219000  1.0
  C  C656  1  0.14568000  0.71564000  0.14363000  1.0
  C  C657  1  0.18695000  0.63490000  0.17394000  1.0
  C  C658  1  0.20765000  0.63384000  0.15052000  1.0
  C  C659  1  0.51995000  0.00914000  0.46744000  1.0
  C  C660  1  0.54017000  0.96866000  0.48328000  1.0
  C  C661  1  0.51930000  0.97040000  0.50674000  1.0
  C  C662  1  0.99678000  0.53129000  0.51516000  1.0
  C  C663  1  0.03464000  0.49177000  0.47694000  1.0
  C  C664  1  0.10341000  0.48759000  0.48169000  1.0
  C  C665  1  0.99373000  0.49146000  0.46791000  1.0
  C  C666  1  0.03658000  0.51051000  0.49916000  1.0
  C  C667  1  0.95299000  0.51207000  0.48356000  1.0
  C  C668  1  0.95455000  0.53160000  0.50694000  1.0
  C  C669  1  0.47614000  0.53541000  0.46847000  1.0
  C  C670  1  0.54316000  0.48260000  0.49421000  1.0
  C  C671  1  0.59991000  0.45752000  0.46692000  1.0
  C  C672  1  0.51473000  0.48968000  0.51533000  1.0
  C  C673  1  0.52546000  0.50380000  0.47196000  1.0
  C  C674  1  0.46488000  0.52149000  0.51250000  1.0
  C  C675  1  0.44580000  0.54409000  0.48935000  1.0
  C  C676  1  0.71709000  0.25530000  0.98887000  1.0
  C  C677  1  0.67823000  0.25085000  0.97973000  1.0
  C  C678  1  0.03405000  0.73071000  0.98944000  1.0
  C  C679  1  0.07983000  0.74689000  0.01914000  1.0
  C  C680  1  0.02298000  0.81013000  0.03655000  1.0
  C  C681  1  0.12347000  0.70931000  0.01059000  1.0
  C  C682  1  0.03695000  0.75712000  0.00949000  1.0
  C  C683  1  0.12150000  0.68043000  0.99132000  1.0
  C  C684  1  0.07710000  0.69155000  0.98053000  1.0
  C  C685  1  0.27659000  0.76751000  0.99321000  1.0
  C  C686  1  0.25877000  0.83117000  0.96448000  1.0
  C  C687  1  0.19264000  0.84074000  0.94888000  1.0
  C  C688  1  0.29791000  0.83562000  0.97224000  1.0
  C  C689  1  0.24850000  0.79854000  0.97407000  1.0
  C  C690  1  0.32838000  0.80304000  0.99053000  1.0
  C  C691  1  0.31732000  0.76970000  0.00124000  1.0
  C  C692  1  0.82418000  0.88575000  0.97183000  1.0
  C  C693  1  0.76384000  0.93178000  0.00197000  1.0
  C  C694  1  0.76601000  0.87472000  0.02404000  1.0
  C  C695  1  0.75645000  0.97535000  0.99256000  1.0
  C  C696  1  0.79536000  0.88905000  0.99217000  1.0
  C  C697  1  0.78315000  0.97368000  0.97131000  1.0
  C  C698  1  0.81758000  0.92889000  0.96121000  1.0
  C  C699  1  0.96253000  0.28848000  0.99194000  1.0
  C  C700  1  0.87714000  0.33705000  0.98979000  1.0
  C  C701  1  0.86501000  0.38413000  0.02097000  1.0
  C  C702  1  0.87323000  0.30942000  0.97084000  1.0
  C  C703  1  0.91915000  0.32690000  0.00035000  1.0
  C  C704  1  0.91631000  0.27093000  0.96150000  1.0
  C  C705  1  0.96099000  0.26102000  0.97174000  1.0
  C  C706  1  0.38389000  0.92269000  0.65594000  1.0
  C  C707  1  0.40248000  0.85835000  0.68433000  1.0
  C  C708  1  0.46884000  0.84865000  0.69966000  1.0
  C  C709  1  0.36329000  0.85389000  0.67666000  1.0
  C  C710  1  0.41240000  0.89130000  0.67486000  1.0
  C  C711  1  0.33241000  0.88680000  0.65861000  1.0
  C  C712  1  0.34310000  0.92050000  0.64801000  1.0
  C  C713  1  0.83842000  0.80411000  0.67708000  1.0
  C  C714  1  0.87575000  0.71855000  0.67508000  1.0
  C  C715  1  0.83028000  0.70737000  0.70051000  1.0
  C  C716  1  0.90684000  0.71517000  0.65600000  1.0
  C  C717  1  0.84230000  0.76071000  0.68489000  1.0
  C  C718  1  0.90460000  0.75800000  0.64806000  1.0
  C  C719  1  0.87118000  0.80215000  0.65887000  1.0
  C  C720  1  0.78961000  0.37729000  0.67683000  1.0
  C  C721  1  0.70374000  0.42325000  0.67608000  1.0
  C  C722  1  0.69212000  0.47613000  0.70404000  1.0
  C  C723  1  0.70035000  0.39771000  0.65586000  1.0
  C  C724  1  0.74602000  0.41462000  0.68588000  1.0
  C  C725  1  0.74345000  0.35926000  0.64666000  1.0
  C  C726  1  0.78778000  0.34855000  0.65738000  1.0
  C  C727  1  0.96360000  0.50434000  0.63912000  1.0
  C  C728  1  0.91819000  0.46372000  0.63968000  1.0
  C  C729  1  0.86623000  0.50336000  0.61099000  1.0
  C  C730  1  0.94335000  0.43553000  0.66017000  1.0
  C  C731  1  0.92673000  0.49735000  0.62982000  1.0
  C  C732  1  0.98129000  0.44100000  0.66966000  1.0
  C  C733  1  0.99192000  0.47459000  0.65891000  1.0
  C  C734  1  0.42116000  0.64311000  0.65872000  1.0
  C  C735  1  0.45684000  0.55791000  0.65640000  1.0
  C  C736  1  0.41928000  0.54626000  0.68650000  1.0
  C  C737  1  0.48964000  0.55371000  0.63813000  1.0
  C  C738  1  0.42487000  0.59998000  0.66672000  1.0
  C  C739  1  0.48622000  0.59660000  0.62916000  1.0
  C  C740  1  0.45145000  0.64131000  0.63914000  1.0
  C  C741  1  0.62726000  0.95825000  0.66005000  1.0
  C  C742  1  0.58132000  0.94160000  0.63069000  1.0
  C  C743  1  0.63791000  0.87737000  0.61389000  1.0
  C  C744  1  0.53778000  0.97977000  0.63896000  1.0
  C  C745  1  0.62423000  0.93130000  0.64033000  1.0
  C  C746  1  0.53992000  0.00914000  0.65790000  1.0
  C  C747  1  0.58435000  0.99797000  0.66867000  1.0
  C  C748  1  0.02921000  0.51821000  0.34355000  1.0
  C  C749  1  0.07516000  0.55827000  0.34277000  1.0
  C  C750  1  0.12830000  0.51725000  0.37072000  1.0
  C  C751  1  0.04941000  0.58712000  0.32257000  1.0
  C  C752  1  0.06665000  0.52458000  0.35258000  1.0
  C  C753  1  0.01090000  0.58230000  0.31339000  1.0
  C  C754  1  0.00029000  0.54866000  0.32411000  1.0
  C  C755  1  0.50356000  0.46911000  0.34424000  1.0
  C  C756  1  0.56484000  0.42334000  0.31446000  1.0
  C  C757  1  0.56425000  0.48059000  0.29329000  1.0
  C  C758  1  0.57126000  0.37976000  0.32329000  1.0
  C  C759  1  0.53332000  0.46597000  0.32439000  1.0
  C  C760  1  0.54370000  0.38123000  0.34410000  1.0
  C  C761  1  0.50932000  0.42590000  0.35431000  1.0
  C  C762  1  0.11489000  0.30352000  0.30711000  1.0
  C  C763  1  0.15646000  0.31519000  0.27932000  1.0
  C  C764  1  0.08588000  0.30683000  0.32725000  1.0
  C  C765  1  0.14819000  0.26135000  0.29724000  1.0
  C  C766  1  0.09008000  0.26377000  0.33633000  1.0
  C  C767  1  0.20409000  0.64400000  0.30608000  1.0
  C  C768  1  0.28993000  0.59783000  0.30711000  1.0
  C  C769  1  0.30170000  0.54430000  0.27952000  1.0
  C  C770  1  0.29319000  0.62387000  0.32712000  1.0
  C  C771  1  0.24771000  0.60633000  0.29728000  1.0
  C  C772  1  0.25006000  0.66261000  0.33609000  1.0
  C  C773  1  0.20581000  0.67317000  0.32533000  1.0
  N  N774  1  0.66671000  0.10337000  0.06060000  1.0
  N  N775  1  0.62535000  0.07543000  0.02277000  1.0
  N  N776  1  0.35547000  0.05293000  0.62549000  1.0
  N  N777  1  0.23546000  0.10531000  0.25491000  1.0
  N  N778  1  0.26264000  0.03568000  0.29244000  1.0
  N  N779  1  0.56882000  0.01286000  0.39373000  1.0
  N  N780  1  0.75798000  0.34332000  0.92096000  1.0
  N  N781  1  0.68984000  0.38562000  0.95909000  1.0
  N  N782  1  0.32836000  0.91854000  0.92152000  1.0
  N  N783  1  0.37100000  0.94508000  0.95929000  1.0
  N  N784  1  0.90496000  0.77122000  0.92147000  1.0
  N  N785  1  0.93122000  0.70287000  0.95963000  1.0
  N  N786  1  0.23709000  0.67895000  0.06147000  1.0
  N  N787  1  0.30582000  0.63731000  0.02346000  1.0
  N  N788  1  0.08945000  0.24942000  0.06093000  1.0
  N  N789  1  0.06358000  0.31796000  0.02295000  1.0
  N  N790  1  0.42471000  0.01041000  0.58778000  1.0
  N  N791  1  0.99435000  0.58659000  0.58802000  1.0
  N  N792  1  0.03687000  0.61349000  0.62579000  1.0
  N  N793  1  0.57033000  0.43903000  0.58841000  1.0
  N  N794  1  0.59692000  0.37042000  0.62642000  1.0
  N  N795  1  0.90302000  0.34651000  0.72771000  1.0
  N  N796  1  0.97204000  0.30498000  0.68988000  1.0
  N  N797  1  0.33402000  0.77027000  0.72741000  1.0
  N  N798  1  0.29099000  0.74367000  0.68981000  1.0
  N  N799  1  0.75637000  0.91677000  0.72806000  1.0
  N  N800  1  0.72932000  0.98639000  0.69050000  1.0
  N  N801  1  0.09144000  0.67450000  0.25483000  1.0
  N  N802  1  0.02178000  0.71721000  0.29235000  1.0
  N  N803  1  0.65918000  0.25305000  0.25448000  1.0
  N  N804  1  0.70173000  0.27907000  0.29257000  1.0
  N  N805  1  0.63738000  0.97055000  0.35571000  1.0
  N  N806  1  0.99828000  0.43642000  0.39472000  1.0
  N  N807  1  0.95588000  0.40908000  0.35711000  1.0
  N  N808  1  0.42272000  0.58312000  0.39472000  1.0
  N  N809  1  0.39606000  0.65182000  0.35674000  1.0
  O  O810  1  0.72024000  0.02259000  0.03034000  1.0
  O  O811  1  0.72506000  0.10489000  0.02594000  1.0
  O  O812  1  0.69866000  0.06242000  0.99401000  1.0
  O  O813  1  0.45122000  0.03003000  0.63202000  1.0
  O  O814  1  0.31696000  0.07622000  0.28504000  1.0
  O  O815  1  0.19001000  0.13127000  0.29926000  1.0
  O  O816  1  0.27746000  0.09450000  0.32146000  1.0
  O  O817  1  0.59627000  0.06537000  0.36273000  1.0
  O  O818  1  0.50877000  0.07063000  0.35897000  1.0
  O  O819  1  0.57706000  0.04339000  0.32676000  1.0
  O  O820  1  0.41050000  0.07713000  0.97430000  1.0
  O  O821  1  0.45590000  0.10518000  0.98970000  1.0
  O  O822  1  0.18384000  0.09187000  0.64007000  1.0
  O  O823  1  0.25682000  0.12074000  0.15745000  1.0
  O  O824  1  0.41702000  0.09564000  0.50192000  1.0
  O  O825  1  0.44987000  0.09301000  0.46516000  1.0
  O  O826  1  0.25939000  0.09629000  0.96218000  1.0
  O  O827  1  0.33173000  0.13205000  0.35256000  1.0
  O  O828  1  0.40221000  0.11571000  0.36853000  1.0
  O  O829  1  0.67570000  0.08538000  0.35236000  1.0
  O  O830  1  0.11070000  0.13662000  0.65569000  1.0
  O  O831  1  0.64687000  0.14928000  0.01635000  1.0
  O  O832  1  0.09030000  0.18995000  0.02629000  1.0
  O  O833  1  0.23566000  0.16385000  0.28987000  1.0
  O  O834  1  0.59620000  0.15804000  0.67686000  1.0
  O  O835  1  0.74484000  0.14457000  0.13067000  1.0
  O  O836  1  0.74568000  0.17523000  0.16762000  1.0
  O  O837  1  0.22707000  0.15556000  0.12096000  1.0
  O  O838  1  0.76787000  0.16886000  0.03607000  1.0
  O  O839  1  0.20648000  0.16595000  0.97896000  1.0
  O  O840  1  0.69263000  0.13877000  0.33619000  1.0
  O  O841  1  0.13659000  0.22189000  0.01706000  1.0
  O  O842  1  0.67853000  0.20610000  0.29839000  1.0
  O  O843  1  0.78379000  0.22312000  0.01997000  1.0
  O  O844  1  0.56749000  0.23140000  0.66148000  1.0
  O  O845  1  0.72877000  0.29130000  0.95120000  1.0
  O  O846  1  0.78636000  0.36113000  0.96509000  1.0
  O  O847  1  0.81730000  0.28346000  0.95528000  1.0
  O  O848  1  0.74897000  0.31122000  0.98752000  1.0
  O  O849  1  0.27616000  0.99924000  0.95209000  1.0
  O  O850  1  0.34816000  0.87217000  0.96559000  1.0
  O  O851  1  0.26993000  0.91762000  0.95635000  1.0
  O  O852  1  0.29774000  0.95881000  0.98825000  1.0
  O  O853  1  0.98627000  0.74243000  0.95173000  1.0
  O  O854  1  0.85909000  0.79906000  0.96569000  1.0
  O  O855  1  0.90553000  0.83053000  0.95580000  1.0
  O  O856  1  0.94638000  0.76224000  0.98804000  1.0
  O  O857  1  0.26496000  0.73191000  0.03103000  1.0
  O  O858  1  0.21012000  0.65949000  0.01732000  1.0
  O  O859  1  0.17728000  0.73749000  0.02684000  1.0
  O  O860  1  0.24578000  0.71078000  0.99478000  1.0
  O  O861  1  0.00907000  0.27757000  0.03007000  1.0
  O  O862  1  0.04990000  0.25822000  0.99404000  1.0
  O  O863  1  0.39566000  0.95832000  0.61816000  1.0
  O  O864  1  0.48364000  0.95197000  0.62270000  1.0
  O  O865  1  0.41461000  0.97950000  0.65446000  1.0
  O  O866  1  0.94211000  0.66763000  0.61827000  1.0
  O  O867  1  0.01383000  0.54079000  0.63230000  1.0
  O  O868  1  0.93569000  0.58610000  0.62282000  1.0
  O  O869  1  0.96320000  0.62780000  0.65462000  1.0
  O  O870  1  0.65199000  0.40986000  0.61838000  1.0
  O  O871  1  0.52493000  0.46670000  0.63273000  1.0
  O  O872  1  0.57145000  0.49800000  0.62273000  1.0
  O  O873  1  0.61260000  0.42948000  0.65484000  1.0
  O  O874  1  0.93125000  0.39951000  0.69767000  1.0
  O  O875  1  0.87635000  0.32740000  0.68338000  1.0
  O  O876  1  0.84358000  0.40532000  0.69308000  1.0
  O  O877  1  0.91242000  0.37877000  0.66121000  1.0
  O  O878  1  0.38598000  0.68981000  0.69675000  1.0
  O  O879  1  0.31344000  0.81688000  0.68339000  1.0
  O  O880  1  0.39181000  0.77161000  0.69233000  1.0
  O  O881  1  0.36385000  0.73025000  0.66059000  1.0
  O  O882  1  0.67509000  0.94575000  0.69781000  1.0
  O  O883  1  0.80212000  0.89079000  0.68380000  1.0
  O  O884  1  0.75647000  0.85817000  0.69306000  1.0
  O  O885  1  0.71480000  0.92741000  0.66144000  1.0
  O  O886  1  0.06203000  0.62255000  0.28498000  1.0
  O  O887  1  0.11753000  0.69416000  0.29915000  1.0
  O  O888  1  0.14996000  0.61610000  0.28987000  1.0
  O  O889  1  0.08050000  0.64373000  0.32141000  1.0
  O  O890  1  0.60697000  0.33337000  0.28522000  1.0
  O  O891  1  0.60043000  0.25201000  0.28898000  1.0
  O  O892  1  0.62820000  0.29259000  0.32129000  1.0
  O  O893  1  0.54161000  0.99244000  0.34993000  1.0
  O  O894  1  0.05056000  0.35504000  0.36478000  1.0
  O  O895  1  0.97898000  0.48169000  0.35032000  1.0
  O  O896  1  0.05709000  0.43644000  0.35988000  1.0
  O  O897  1  0.02968000  0.39431000  0.32827000  1.0
  O  O898  1  0.34131000  0.61198000  0.36467000  1.0
  O  O899  1  0.46831000  0.55585000  0.35044000  1.0
  O  O900  1  0.42214000  0.52405000  0.36028000  1.0
  O  O901  1  0.38082000  0.59259000  0.32824000  1.0
  O  O902  1  0.56564000  0.46428000  0.02680000  1.0
  O  O903  1  0.49137000  0.51008000  0.04082000  1.0
  O  O904  1  0.01660000  0.44351000  0.95568000  1.0
  O  O905  1  0.98795000  0.51795000  0.94192000  1.0
  O  O906  1  0.20580000  0.58150000  0.65792000  1.0
  O  O907  1  0.25010000  0.61051000  0.67370000  1.0
  O  O908  1  0.81992000  0.84508000  0.37404000  1.0
  O  O909  1  0.89398000  0.79948000  0.35973000  1.0
  O  O910  1  0.91604000  0.27701000  0.34251000  1.0
  O  O911  1  0.87083000  0.24892000  0.32690000  1.0
  O  O912  1  0.42649000  0.78865000  0.32282000  1.0
  O  O913  1  0.39660000  0.86192000  0.30713000  1.0
  O  O914  1  0.76916000  0.30991000  0.82423000  1.0
  O  O915  1  0.80537000  0.30468000  0.78819000  1.0
  O  O916  1  0.24956000  0.87781000  0.85150000  1.0
  O  O917  1  0.24846000  0.84748000  0.81450000  1.0
  O  O918  1  0.73436000  0.90330000  0.82451000  1.0
  O  O919  1  0.76537000  0.86729000  0.86060000  1.0
  O  O920  1  0.11799000  0.75825000  0.13110000  1.0
  O  O921  1  0.08592000  0.75980000  0.16795000  1.0
  O  O922  1  0.08023000  0.50834000  0.50251000  1.0
  O  O923  1  0.07790000  0.47746000  0.46588000  1.0
  O  O924  1  0.56118000  0.48786000  0.45419000  1.0
  O  O925  1  0.59113000  0.45286000  0.49062000  1.0
  O  O926  1  0.00007000  0.79781000  0.02017000  1.0
  O  O927  1  0.07032000  0.78145000  0.03649000  1.0
  O  O928  1  0.20603000  0.80433000  0.96452000  1.0
  O  O929  1  0.22237000  0.85825000  0.94835000  1.0
  O  O930  1  0.79768000  0.85189000  0.00612000  1.0
  O  O931  1  0.74518000  0.92211000  0.02252000  1.0
  O  O932  1  0.91236000  0.35670000  0.02029000  1.0
  O  O933  1  0.84246000  0.37362000  0.00347000  1.0
  O  O934  1  0.45502000  0.88543000  0.68422000  1.0
  O  O935  1  0.43924000  0.83099000  0.70021000  1.0
  O  O936  1  0.81291000  0.75436000  0.70130000  1.0
  O  O937  1  0.86713000  0.68459000  0.68505000  1.0
  O  O938  1  0.73944000  0.44797000  0.70387000  1.0
  O  O939  1  0.66938000  0.46341000  0.68770000  1.0
  O  O940  1  0.89395000  0.52310000  0.61138000  1.0
  O  O941  1  0.87866000  0.46850000  0.62762000  1.0
  O  O942  1  0.40028000  0.59347000  0.68599000  1.0
  O  O943  1  0.45332000  0.52351000  0.66956000  1.0
  O  O944  1  0.66094000  0.89000000  0.63003000  1.0
  O  O945  1  0.59064000  0.90646000  0.61376000  1.0
  O  O946  1  0.10014000  0.49800000  0.37057000  1.0
  O  O947  1  0.11542000  0.55264000  0.35438000  1.0
  O  O948  1  0.53200000  0.50324000  0.31099000  1.0
  O  O949  1  0.58447000  0.43321000  0.29440000  1.0
  O  O950  1  0.17513000  0.26798000  0.27936000  1.0
  O  O951  1  0.12111000  0.33783000  0.29563000  1.0
  O  O952  1  0.25440000  0.57257000  0.27952000  1.0
  O  O953  1  0.32434000  0.55734000  0.29576000  1.0
