# generated using pymatgen
data_NiH16C36(NO2)10
_symmetry_space_group_name_H-M   'P 1'
_cell_length_a   41.05461035
_cell_length_b   41.05500000
_cell_length_c   45.50290000
_cell_angle_alpha   90.08000000
_cell_angle_beta   90.07993396
_cell_angle_gamma   119.61093453
_symmetry_Int_Tables_number   1
_chemical_formula_structural   NiH16C36(NO2)10
_chemical_formula_sum   'Ni12 H192 C432 N120 O240'
_cell_volume   66678.42831798
_cell_formula_units_Z   12
loop_
 _symmetry_equiv_pos_site_id
 _symmetry_equiv_pos_as_xyz
  1  'x, y, z'
loop_
 _atom_site_type_symbol
 _atom_site_label
 _atom_site_symmetry_multiplicity
 _atom_site_fract_x
 _atom_site_fract_y
 _atom_site_fract_z
 _atom_site_occupancy
  Ni  Ni0  1  0.89807000  0.23412000  0.94863000  1.0
  Ni  Ni1  1  0.33536000  0.09856000  0.95389000  1.0
  Ni  Ni2  1  0.75987000  0.65299000  0.95339000  1.0
  Ni  Ni3  1  0.33763000  0.23699000  0.55209000  1.0
  Ni  Ni4  1  0.89966000  0.66728000  0.55141000  1.0
  Ni  Ni5  1  0.76409000  0.10495000  0.54835000  1.0
  Ni  Ni6  1  0.08299000  0.65672000  0.07641000  1.0
  Ni  Ni7  1  0.58193000  0.91829000  0.07608000  1.0
  Ni  Ni8  1  0.33691000  0.42123000  0.07539000  1.0
  Ni  Ni9  1  0.57388000  0.66085000  0.43084000  1.0
  Ni  Ni10  1  0.08338000  0.42556000  0.42750000  1.0
  Ni  Ni11  1  0.34056000  0.91730000  0.42866000  1.0
  H  H12  1  0.94987000  0.30130000  0.91364000  1.0
  H  H13  1  0.98792000  0.36751000  0.92836000  1.0
  H  H14  1  0.91973000  0.34393000  0.00583000  1.0
  H  H15  1  0.88398000  0.27840000  0.99072000  1.0
  H  H16  1  0.84907000  0.25926000  0.92010000  1.0
  H  H17  1  0.82653000  0.25577000  0.86932000  1.0
  H  H18  1  0.88827000  0.20040000  0.84376000  1.0
  H  H19  1  0.90913000  0.20443000  0.89452000  1.0
  H  H20  1  0.34921000  0.04681000  0.91635000  1.0
  H  H21  1  0.38131000  0.01114000  0.92780000  1.0
  H  H22  1  0.43441000  0.08426000  0.00173000  1.0
  H  H23  1  0.39960000  0.11648000  0.99084000  1.0
  H  H24  1  0.40666000  0.15133000  0.92413000  1.0
  H  H25  1  0.42210000  0.17664000  0.87383000  1.0
  H  H26  1  0.30481000  0.11195000  0.85133000  1.0
  H  H27  1  0.29144000  0.08867000  0.90171000  1.0
  H  H28  1  0.69596000  0.63985000  0.91451000  1.0
  H  H29  1  0.62817000  0.60746000  0.92395000  1.0
  H  H30  1  0.64611000  0.55441000  0.99921000  1.0
  H  H31  1  0.71304000  0.58891000  0.98968000  1.0
  H  H32  1  0.73923000  0.58255000  0.92090000  1.0
  H  H33  1  0.75142000  0.56906000  0.87060000  1.0
  H  H34  1  0.81000000  0.68785000  0.85298000  1.0
  H  H35  1  0.79687000  0.69915000  0.90317000  1.0
  H  H36  1  0.34941000  0.30191000  0.58891000  1.0
  H  H37  1  0.37785000  0.36886000  0.57677000  1.0
  H  H38  1  0.42987000  0.35026000  0.50130000  1.0
  H  H39  1  0.39926000  0.28373000  0.51356000  1.0
  H  H40  1  0.40908000  0.26005000  0.58395000  1.0
  H  H41  1  0.42422000  0.25349000  0.63527000  1.0
  H  H42  1  0.30604000  0.19720000  0.65519000  1.0
  H  H43  1  0.29310000  0.20430000  0.60394000  1.0
  H  H44  1  0.95232000  0.65477000  0.58882000  1.0
  H  H45  1  0.98858000  0.62300000  0.57845000  1.0
  H  H46  1  0.91929000  0.57214000  0.50210000  1.0
  H  H47  1  0.88623000  0.60627000  0.51239000  1.0
  H  H48  1  0.85374000  0.59415000  0.58130000  1.0
  H  H49  1  0.82818000  0.57654000  0.63136000  1.0
  H  H50  1  0.87890000  0.69398000  0.65318000  1.0
  H  H51  1  0.90396000  0.70942000  0.60330000  1.0
  H  H52  1  0.70051000  0.05427000  0.58708000  1.0
  H  H53  1  0.63345000  0.01413000  0.57567000  1.0
  H  H54  1  0.64914000  0.07810000  0.49677000  1.0
  H  H55  1  0.71554000  0.11598000  0.50865000  1.0
  H  H56  1  0.73912000  0.15320000  0.57852000  1.0
  H  H57  1  0.74642000  0.17752000  0.62904000  1.0
  H  H58  1  0.80911000  0.12169000  0.65054000  1.0
  H  H59  1  0.80040000  0.09835000  0.60026000  1.0
  H  H60  1  0.10689000  0.73085000  0.10123000  1.0
  H  H61  1  0.14339000  0.79470000  0.08325000  1.0
  H  H62  1  0.16193000  0.75142000  0.00217000  1.0
  H  H63  1  0.12575000  0.68776000  0.02221000  1.0
  H  H64  1  0.16191000  0.68426000  0.09142000  1.0
  H  H65  1  0.19940000  0.71021000  0.13559000  1.0
  H  H66  1  0.09842000  0.68501000  0.18297000  1.0
  H  H67  1  0.06229000  0.65648000  0.13827000  1.0
  H  H68  1  0.53078000  0.84136000  0.09491000  1.0
  H  H69  1  0.52041000  0.80765000  0.14112000  1.0
  H  H70  1  0.59609000  0.91200000  0.18400000  1.0
  H  H71  1  0.60425000  0.94447000  0.13689000  1.0
  H  H72  1  0.63359000  0.89674000  0.10205000  1.0
  H  H73  1  0.65907000  0.85696000  0.08654000  1.0
  H  H74  1  0.58913000  0.82633000  0.00912000  1.0
  H  H75  1  0.56499000  0.86745000  0.02584000  1.0
  H  H76  1  0.26438000  0.37299000  0.10331000  1.0
  H  H77  1  0.19938000  0.34442000  0.08690000  1.0
  H  H78  1  0.23781000  0.40268000  0.00426000  1.0
  H  H79  1  0.30245000  0.43079000  0.02238000  1.0
  H  H80  1  0.31127000  0.47459000  0.08987000  1.0
  H  H81  1  0.28848000  0.48945000  0.13429000  1.0
  H  H82  1  0.31571000  0.41551000  0.18278000  1.0
  H  H83  1  0.34126000  0.40465000  0.13768000  1.0
  H  H84  1  0.62459000  0.73274000  0.40364000  1.0
  H  H85  1  0.65306000  0.79789000  0.41914000  1.0
  H  H86  1  0.59102000  0.76168000  0.50034000  1.0
  H  H87  1  0.56300000  0.69642000  0.48312000  1.0
  H  H88  1  0.52299000  0.68890000  0.41484000  1.0
  H  H89  1  0.51246000  0.71487000  0.37020000  1.0
  H  H90  1  0.58534000  0.68443000  0.32375000  1.0
  H  H91  1  0.59226000  0.65629000  0.36903000  1.0
  H  H92  1  0.16249000  0.47439000  0.41210000  1.0
  H  H93  1  0.19841000  0.48589000  0.36679000  1.0
  H  H94  1  0.09498000  0.41962000  0.31946000  1.0
  H  H95  1  0.06047000  0.41032000  0.36561000  1.0
  H  H96  1  0.10417000  0.37432000  0.39917000  1.0
  H  H97  1  0.14143000  0.34569000  0.41388000  1.0
  H  H98  1  0.16538000  0.40547000  0.49640000  1.0
  H  H99  1  0.12803000  0.43375000  0.47989000  1.0
  H  H100  1  0.26816000  0.89591000  0.40131000  1.0
  H  H101  1  0.20324000  0.86041000  0.41732000  1.0
  H  H102  1  0.24115000  0.83727000  0.49925000  1.0
  H  H103  1  0.30583000  0.87251000  0.48123000  1.0
  H  H104  1  0.31099000  0.83864000  0.41160000  1.0
  H  H105  1  0.28670000  0.80376000  0.36576000  1.0
  H  H106  1  0.32173000  0.90822000  0.32060000  1.0
  H  H107  1  0.34665000  0.94164000  0.36730000  1.0
  H  H108  1  0.63376000  0.99159000  0.00365000  1.0
  H  H109  1  0.70116000  0.00538000  0.07985000  1.0
  H  H110  1  0.78527000  0.17955000  0.98333000  1.0
  H  H111  1  0.84015000  0.11553000  0.96675000  1.0
  H  H112  1  0.32247000  0.30844000  0.09010000  1.0
  H  H113  1  0.33880000  0.35554000  0.00365000  1.0
  H  H114  1  0.27699000  0.16192000  0.96761000  1.0
  H  H115  1  0.38735000  0.20169000  0.00271000  1.0
  H  H116  1  0.87792000  0.71381000  0.97542000  1.0
  H  H117  1  0.81408000  0.59559000  0.99158000  1.0
  H  H118  1  0.99353000  0.68603000  0.08458000  1.0
  H  H119  1  0.00290000  0.63047000  0.00777000  1.0
  H  H120  1  0.35277000  0.98764000  0.50190000  1.0
  H  H121  1  0.32202000  0.01364000  0.41872000  1.0
  H  H122  1  0.39688000  0.18475000  0.51385000  1.0
  H  H123  1  0.28057000  0.11763000  0.53544000  1.0
  H  H124  1  0.78974000  0.60758000  0.51214000  1.0
  H  H125  1  0.83659000  0.72417000  0.53287000  1.0
  H  H126  1  0.63104000  0.64288000  0.50193000  1.0
  H  H127  1  0.69061000  0.68541000  0.42105000  1.0
  H  H128  1  0.98719000  0.31269000  0.41370000  1.0
  H  H129  1  0.00968000  0.36561000  0.49835000  1.0
  H  H130  1  0.88406000  0.17053000  0.53387000  1.0
  H  H131  1  0.81165000  0.21069000  0.50285000  1.0
  H  H132  1  0.31080000  0.01550000  0.01857000  1.0
  H  H133  1  0.23306000  0.99016000  0.94760000  1.0
  H  H134  1  0.13469000  0.83121000  0.04591000  1.0
  H  H135  1  0.21939000  0.81113000  0.00931000  1.0
  H  H136  1  0.59057000  0.76686000  0.02786000  1.0
  H  H137  1  0.69975000  0.86134000  0.04236000  1.0
  H  H138  1  0.73391000  0.74220000  0.94368000  1.0
  H  H139  1  0.72281000  0.69111000  0.02795000  1.0
  H  H140  1  0.97289000  0.26965000  0.02187000  1.0
  H  H141  1  0.00959000  0.24855000  0.93944000  1.0
  H  H142  1  0.16374000  0.29736000  0.04869000  1.0
  H  H143  1  0.17717000  0.40034000  0.01422000  1.0
  H  H144  1  0.69855000  0.83392000  0.45832000  1.0
  H  H145  1  0.59431000  0.82316000  0.48713000  1.0
  H  H146  1  0.72880000  0.02795000  0.47573000  1.0
  H  H147  1  0.74484000  0.99251000  0.56048000  1.0
  H  H148  1  0.22303000  0.40398000  0.48446000  1.0
  H  H149  1  0.13535000  0.29995000  0.45047000  1.0
  H  H150  1  0.24275000  0.25512000  0.55890000  1.0
  H  H151  1  0.30066000  0.27324000  0.47698000  1.0
  H  H152  1  0.01413000  0.75174000  0.56551000  1.0
  H  H153  1  0.97393000  0.71906000  0.47729000  1.0
  H  H154  1  0.18078000  0.78119000  0.49032000  1.0
  H  H155  1  0.16589000  0.86937000  0.45379000  1.0
  H  H156  1  0.77221000  0.11312000  0.69409000  1.0
  H  H157  1  0.79549000  0.22102000  0.66285000  1.0
  H  H158  1  0.89763000  0.24468000  0.80306000  1.0
  H  H159  1  0.78521000  0.20465000  0.83288000  1.0
  H  H160  1  0.34033000  0.10563000  0.80834000  1.0
  H  H161  1  0.40648000  0.21806000  0.84036000  1.0
  H  H162  1  0.33719000  0.23846000  0.69828000  1.0
  H  H163  1  0.41255000  0.20059000  0.67007000  1.0
  H  H164  1  0.73494000  0.57730000  0.81763000  1.0
  H  H165  1  0.84908000  0.66277000  0.83082000  1.0
  H  H166  1  0.81245000  0.66128000  0.67469000  1.0
  H  H167  1  0.85563000  0.58587000  0.68461000  1.0
  H  H168  1  0.13637000  0.68596000  0.22147000  1.0
  H  H169  1  0.22054000  0.76426000  0.16295000  1.0
  H  H170  1  0.30617000  0.79558000  0.31419000  1.0
  H  H171  1  0.25383000  0.86309000  0.30512000  1.0
  H  H172  1  0.61512000  0.86346000  0.19953000  1.0
  H  H173  1  0.49539000  0.80314000  0.19292000  1.0
  H  H174  1  0.54864000  0.76897000  0.34311000  1.0
  H  H175  1  0.54825000  0.68631000  0.28499000  1.0
  H  H176  1  0.31682000  0.45444000  0.22052000  1.0
  H  H177  1  0.23605000  0.45913000  0.16322000  1.0
  H  H178  1  0.20717000  0.51497000  0.31494000  1.0
  H  H179  1  0.14086000  0.39586000  0.30527000  1.0
  H  H180  1  0.11934000  0.58800000  0.03178000  1.0
  H  H181  1  0.02439000  0.53766000  0.08918000  1.0
  H  H182  1  0.01532000  0.37650000  0.00320000  1.0
  H  H183  1  0.95519000  0.42486000  0.96261000  1.0
  H  H184  1  0.48151000  0.05945000  0.96883000  1.0
  H  H185  1  0.36871000  0.97662000  0.98925000  1.0
  H  H186  1  0.51978000  0.97715000  0.08879000  1.0
  H  H187  1  0.48188000  0.88592000  0.02762000  1.0
  H  H188  1  0.58057000  0.50810000  0.97784000  1.0
  H  H189  1  0.59727000  0.61951000  0.97071000  1.0
  H  H190  1  0.45822000  0.49330000  0.08909000  1.0
  H  H191  1  0.39906000  0.50718000  0.01683000  1.0
  H  H192  1  0.36216000  0.38392000  0.50771000  1.0
  H  H193  1  0.47322000  0.42684000  0.54155000  1.0
  H  H194  1  0.47595000  0.59678000  0.48182000  1.0
  H  H195  1  0.50659000  0.54085000  0.41723000  1.0
  H  H196  1  0.11244000  0.51523000  0.48506000  1.0
  H  H197  1  0.03816000  0.50139000  0.41381000  1.0
  H  H198  1  0.03146000  0.63480000  0.52974000  1.0
  H  H199  1  0.93688000  0.52383000  0.52587000  1.0
  H  H200  1  0.62096000  0.98448000  0.50042000  1.0
  H  H201  1  0.57048000  0.04038000  0.54463000  1.0
  H  H202  1  0.40527000  0.88336000  0.47972000  1.0
  H  H203  1  0.46008000  0.96673000  0.41327000  1.0
  C  C204  1  0.94967000  0.24364000  0.96714000  1.0
  C  C205  1  0.94250000  0.31093000  0.93334000  1.0
  C  C206  1  0.96428000  0.34855000  0.94171000  1.0
  C  C207  1  0.95687000  0.36050000  0.96843000  1.0
  C  C208  1  0.92609000  0.33540000  0.98506000  1.0
  C  C209  1  0.90540000  0.29813000  0.97616000  1.0
  C  C210  1  0.84818000  0.18454000  0.96080000  1.0
  C  C211  1  0.85761000  0.24644000  0.90324000  1.0
  C  C212  1  0.84473000  0.24441000  0.87437000  1.0
  C  C213  1  0.85595000  0.22814000  0.85229000  1.0
  C  C214  1  0.87955000  0.21388000  0.85996000  1.0
  C  C215  1  0.89143000  0.21614000  0.88895000  1.0
  C  C216  1  0.29609000  0.04539000  0.97135000  1.0
  C  C217  1  0.36852000  0.05556000  0.93468000  1.0
  C  C218  1  0.38674000  0.03519000  0.94112000  1.0
  C  C219  1  0.41005000  0.04485000  0.96585000  1.0
  C  C220  1  0.41663000  0.07620000  0.98239000  1.0
  C  C221  1  0.39703000  0.09491000  0.97586000  1.0
  C  C222  1  0.33407000  0.14691000  0.96951000  1.0
  C  C223  1  0.38444000  0.14282000  0.90809000  1.0
  C  C224  1  0.39324000  0.15726000  0.87949000  1.0
  C  C225  1  0.36466000  0.14597000  0.85839000  1.0
  C  C226  1  0.32777000  0.12084000  0.86678000  1.0
  C  C227  1  0.32015000  0.10754000  0.89552000  1.0
  C  C228  1  0.74563000  0.69173000  0.97232000  1.0
  C  C229  1  0.68486000  0.62036000  0.93263000  1.0
  C  C230  1  0.64627000  0.60205000  0.93800000  1.0
  C  C231  1  0.63184000  0.57873000  0.96261000  1.0
  C  C232  1  0.65615000  0.57207000  0.97991000  1.0
  C  C233  1  0.69446000  0.59156000  0.97426000  1.0
  C  C234  1  0.80922000  0.65343000  0.96850000  1.0
  C  C235  1  0.75449000  0.60551000  0.90584000  1.0
  C  C236  1  0.76139000  0.59782000  0.87722000  1.0
  C  C237  1  0.78199000  0.62747000  0.85776000  1.0
  C  C238  1  0.79445000  0.66419000  0.86742000  1.0
  C  C239  1  0.78670000  0.67062000  0.89596000  1.0
  C  C240  1  0.29713000  0.24802000  0.53217000  1.0
  C  C241  1  0.36797000  0.31271000  0.57022000  1.0
  C  C242  1  0.38402000  0.35079000  0.56334000  1.0
  C  C243  1  0.40572000  0.36447000  0.53791000  1.0
  C  C244  1  0.41324000  0.34043000  0.52114000  1.0
  C  C245  1  0.39613000  0.30256000  0.52840000  1.0
  C  C246  1  0.33910000  0.18787000  0.53902000  1.0
  C  C247  1  0.38662000  0.24634000  0.59969000  1.0
  C  C248  1  0.39524000  0.24256000  0.62887000  1.0
  C  C249  1  0.36630000  0.22512000  0.64954000  1.0
  C  C250  1  0.32928000  0.21152000  0.64014000  1.0
  C  C251  1  0.32188000  0.21552000  0.61088000  1.0
  C  C252  1  0.95188000  0.70882000  0.53400000  1.0
  C  C253  1  0.94465000  0.63608000  0.57014000  1.0
  C  C254  1  0.96536000  0.61807000  0.56427000  1.0
  C  C255  1  0.95690000  0.59526000  0.53929000  1.0
  C  C256  1  0.92646000  0.58934000  0.52172000  1.0
  C  C257  1  0.90728000  0.60858000  0.52782000  1.0
  C  C258  1  0.84972000  0.66604000  0.53681000  1.0
  C  C259  1  0.85945000  0.61591000  0.59722000  1.0
  C  C260  1  0.84487000  0.60588000  0.62566000  1.0
  C  C261  1  0.85131000  0.63395000  0.64623000  1.0
  C  C262  1  0.87294000  0.67151000  0.63783000  1.0
  C  C263  1  0.88741000  0.68029000  0.60948000  1.0
  C  C264  1  0.75357000  0.05261000  0.53059000  1.0
  C  C265  1  0.68895000  0.06030000  0.56782000  1.0
  C  C266  1  0.65085000  0.03734000  0.56134000  1.0
  C  C267  1  0.63645000  0.04289000  0.53511000  1.0
  C  C268  1  0.65959000  0.07317000  0.51720000  1.0
  C  C269  1  0.69738000  0.09510000  0.52425000  1.0
  C  C270  1  0.81203000  0.15478000  0.53355000  1.0
  C  C271  1  0.75427000  0.14627000  0.59448000  1.0
  C  C272  1  0.75856000  0.16023000  0.62322000  1.0
  C  C273  1  0.77806000  0.15125000  0.64416000  1.0
  C  C274  1  0.79310000  0.12865000  0.63540000  1.0
  C  C275  1  0.78825000  0.11540000  0.60664000  1.0
  C  C276  1  0.03497000  0.65815000  0.05993000  1.0
  C  C277  1  0.11941000  0.73534000  0.07968000  1.0
  C  C278  1  0.13991000  0.77180000  0.06928000  1.0
  C  C279  1  0.15530000  0.77833000  0.04101000  1.0
  C  C280  1  0.15072000  0.74763000  0.02421000  1.0
  C  C281  1  0.13012000  0.71139000  0.03558000  1.0
  C  C282  1  0.08142000  0.60421000  0.07256000  1.0
  C  C283  1  0.14779000  0.68316000  0.11174000  1.0
  C  C284  1  0.16939000  0.69882000  0.13695000  1.0
  C  C285  1  0.15237000  0.70089000  0.16311000  1.0
  C  C286  1  0.11307000  0.68416000  0.16348000  1.0
  C  C287  1  0.09233000  0.66803000  0.13784000  1.0
  C  C288  1  0.53185000  0.92142000  0.07148000  1.0
  C  C289  1  0.54411000  0.85717000  0.11459000  1.0
  C  C290  1  0.53834000  0.83779000  0.14097000  1.0
  C  C291  1  0.55770000  0.85705000  0.16632000  1.0
  C  C292  1  0.58096000  0.89606000  0.16479000  1.0
  C  C293  1  0.58551000  0.91457000  0.13797000  1.0
  C  C294  1  0.63102000  0.96367000  0.05727000  1.0
  C  C295  1  0.62369000  0.88124000  0.08172000  1.0
  C  C296  1  0.63832000  0.85865000  0.07289000  1.0
  C  C297  1  0.62628000  0.83872000  0.04648000  1.0
  C  C298  1  0.59891000  0.84127000  0.02976000  1.0
  C  C299  1  0.58517000  0.86458000  0.03927000  1.0
  C  C300  1  0.33375000  0.37047000  0.06017000  1.0
  C  C301  1  0.25852000  0.37994000  0.08177000  1.0
  C  C302  1  0.22148000  0.36343000  0.07235000  1.0
  C  C303  1  0.21339000  0.37102000  0.04411000  1.0
  C  C304  1  0.24293000  0.39637000  0.02632000  1.0
  C  C305  1  0.27971000  0.41237000  0.03662000  1.0
  C  C306  1  0.38889000  0.47112000  0.06835000  1.0
  C  C307  1  0.31360000  0.46272000  0.11042000  1.0
  C  C308  1  0.29972000  0.47058000  0.13583000  1.0
  C  C309  1  0.29904000  0.45293000  0.16242000  1.0
  C  C310  1  0.31553000  0.42995000  0.16295000  1.0
  C  C311  1  0.32994000  0.42346000  0.13708000  1.0
  C  C312  1  0.62342000  0.66256000  0.44741000  1.0
  C  C313  1  0.61687000  0.73901000  0.42472000  1.0
  C  C314  1  0.63333000  0.77620000  0.43362000  1.0
  C  C315  1  0.62463000  0.78502000  0.46117000  1.0
  C  C316  1  0.59828000  0.75593000  0.47882000  1.0
  C  C317  1  0.58236000  0.71885000  0.46905000  1.0
  C  C318  1  0.52303000  0.60918000  0.43648000  1.0
  C  C319  1  0.53550000  0.68655000  0.39464000  1.0
  C  C320  1  0.53014000  0.70220000  0.36916000  1.0
  C  C321  1  0.54890000  0.70294000  0.34319000  1.0
  C  C322  1  0.57025000  0.68468000  0.34316000  1.0
  C  C323  1  0.57441000  0.66874000  0.36910000  1.0
  C  C324  1  0.08370000  0.47702000  0.43454000  1.0
  C  C325  1  0.14751000  0.46348000  0.39166000  1.0
  C  C326  1  0.16810000  0.46986000  0.36582000  1.0
  C  C327  1  0.14959000  0.45327000  0.33948000  1.0
  C  C328  1  0.11031000  0.43250000  0.33947000  1.0
  C  C329  1  0.09066000  0.42728000  0.36576000  1.0
  C  C330  1  0.03503000  0.37627000  0.44298000  1.0
  C  C331  1  0.11786000  0.38141000  0.42038000  1.0
  C  C332  1  0.13891000  0.36487000  0.42884000  1.0
  C  C333  1  0.15629000  0.37309000  0.45647000  1.0
  C  C334  1  0.15272000  0.39869000  0.47475000  1.0
  C  C335  1  0.13143000  0.41476000  0.46539000  1.0
  C  C336  1  0.33896000  0.96498000  0.44581000  1.0
  C  C337  1  0.26222000  0.88255000  0.42259000  1.0
  C  C338  1  0.22516000  0.86260000  0.43185000  1.0
  C  C339  1  0.21684000  0.84623000  0.45980000  1.0
  C  C340  1  0.24632000  0.84922000  0.47740000  1.0
  C  C341  1  0.28316000  0.86930000  0.46718000  1.0
  C  C342  1  0.39216000  0.91730000  0.43392000  1.0
  C  C343  1  0.31453000  0.85407000  0.39151000  1.0
  C  C344  1  0.30043000  0.83408000  0.36536000  1.0
  C  C345  1  0.30185000  0.85316000  0.33946000  1.0
  C  C346  1  0.31964000  0.89243000  0.34024000  1.0
  C  C347  1  0.33393000  0.91146000  0.36683000  1.0
  C  C348  1  0.66391000  0.99517000  0.04343000  1.0
  C  C349  1  0.66034000  0.00640000  0.01512000  1.0
  C  C350  1  0.69064000  0.03624000  0.00105000  1.0
  C  C351  1  0.72544000  0.05590000  0.01593000  1.0
  C  C352  1  0.72936000  0.04453000  0.04462000  1.0
  C  C353  1  0.69844000  0.01403000  0.05792000  1.0
  C  C354  1  0.75704000  0.08875000  0.00162000  1.0
  C  C355  1  0.75626000  0.12282000  0.99917000  1.0
  C  C356  1  0.78564000  0.15340000  0.98480000  1.0
  C  C357  1  0.81598000  0.15104000  0.97330000  1.0
  C  C358  1  0.81668000  0.11740000  0.97569000  1.0
  C  C359  1  0.78745000  0.08601000  0.98952000  1.0
  C  C360  1  0.33104000  0.33578000  0.04832000  1.0
  C  C361  1  0.32562000  0.30622000  0.06667000  1.0
  C  C362  1  0.32414000  0.27371000  0.05503000  1.0
  C  C363  1  0.32863000  0.27124000  0.02426000  1.0
  C  C364  1  0.33373000  0.30107000  0.00571000  1.0
  C  C365  1  0.33456000  0.33272000  0.01798000  1.0
  C  C366  1  0.32915000  0.23827000  0.01131000  1.0
  C  C367  1  0.29830000  0.21171000  0.99438000  1.0
  C  C368  1  0.30054000  0.18231000  0.98046000  1.0
  C  C369  1  0.33249000  0.17862000  0.98330000  1.0
  C  C370  1  0.36258000  0.20451000  0.00040000  1.0
  C  C371  1  0.36150000  0.23445000  0.01433000  1.0
  C  C372  1  0.84250000  0.65450000  0.98174000  1.0
  C  C373  1  0.87610000  0.68847000  0.98426000  1.0
  C  C374  1  0.90769000  0.69017000  0.99770000  1.0
  C  C375  1  0.90521000  0.65699000  0.00942000  1.0
  C  C376  1  0.87102000  0.62260000  0.00722000  1.0
  C  C377  1  0.84024000  0.62180000  0.99310000  1.0
  C  C378  1  0.93862000  0.65781000  0.02275000  1.0
  C  C379  1  0.95169000  0.67373000  0.05105000  1.0
  C  C380  1  0.98344000  0.67399000  0.06302000  1.0
  C  C381  1  0.00180000  0.65827000  0.04764000  1.0
  C  C382  1  0.98859000  0.64241000  0.01988000  1.0
  C  C383  1  0.95752000  0.64226000  0.00708000  1.0
  C  C384  1  0.33770000  0.99729000  0.45875000  1.0
  C  C385  1  0.34584000  0.00529000  0.48864000  1.0
  C  C386  1  0.34575000  0.03605000  0.50185000  1.0
  C  C387  1  0.33679000  0.05937000  0.48465000  1.0
  C  C388  1  0.32778000  0.05100000  0.45434000  1.0
  C  C389  1  0.32864000  0.02007000  0.44180000  1.0
  C  C390  1  0.33715000  0.09233000  0.49847000  1.0
  C  C391  1  0.37086000  0.12740000  0.49925000  1.0
  C  C392  1  0.37124000  0.15796000  0.51345000  1.0
  C  C393  1  0.33886000  0.15467000  0.52634000  1.0
  C  C394  1  0.30567000  0.12016000  0.52548000  1.0
  C  C395  1  0.30430000  0.08874000  0.51193000  1.0
  C  C396  1  0.81649000  0.66579000  0.52426000  1.0
  C  C397  1  0.78773000  0.63292000  0.51186000  1.0
  C  C398  1  0.75626000  0.63211000  0.49901000  1.0
  C  C399  1  0.75359000  0.66534000  0.49873000  1.0
  C  C400  1  0.78309000  0.69896000  0.51086000  1.0
  C  C401  1  0.81415000  0.69862000  0.52348000  1.0
  C  C402  1  0.72064000  0.66520000  0.48518000  1.0
  C  C403  1  0.68759000  0.65318000  0.50202000  1.0
  C  C404  1  0.65626000  0.65229000  0.48901000  1.0
  C  C405  1  0.65715000  0.66381000  0.45995000  1.0
  C  C406  1  0.68997000  0.67648000  0.44353000  1.0
  C  C407  1  0.72185000  0.67717000  0.45569000  1.0
  C  C408  1  0.00191000  0.34279000  0.45461000  1.0
  C  C409  1  0.97966000  0.31208000  0.43658000  1.0
  C  C410  1  0.94806000  0.28026000  0.44787000  1.0
  C  C411  1  0.93832000  0.27985000  0.47796000  1.0
  C  C412  1  0.96102000  0.31097000  0.49620000  1.0
  C  C413  1  0.99256000  0.34185000  0.48428000  1.0
  C  C414  1  0.90542000  0.24671000  0.49083000  1.0
  C  C415  1  0.91076000  0.22035000  0.50732000  1.0
  C  C416  1  0.88009000  0.19096000  0.52167000  1.0
  C  C417  1  0.84440000  0.18725000  0.52004000  1.0
  C  C418  1  0.83931000  0.21358000  0.50419000  1.0
  C  C419  1  0.86928000  0.24332000  0.48948000  1.0
  C  C420  1  0.27367000  0.00703000  0.98241000  1.0
  C  C421  1  0.28594000  0.99538000  0.00680000  1.0
  C  C422  1  0.26707000  0.95781000  0.01578000  1.0
  C  C423  1  0.23497000  0.93146000  0.99987000  1.0
  C  C424  1  0.22234000  0.94337000  0.97524000  1.0
  C  C425  1  0.24205000  0.98110000  0.96681000  1.0
  C  C426  1  0.21425000  0.89179000  0.00928000  1.0
  C  C427  1  0.18011000  0.87852000  0.02481000  1.0
  C  C428  1  0.16085000  0.84123000  0.03417000  1.0
  C  C429  1  0.17516000  0.81701000  0.02917000  1.0
  C  C430  1  0.20854000  0.82998000  0.01339000  1.0
  C  C431  1  0.22819000  0.86698000  0.00291000  1.0
  C  C432  1  0.64331000  0.81640000  0.03617000  1.0
  C  C433  1  0.62077000  0.77916000  0.02733000  1.0
  C  C434  1  0.63671000  0.75761000  0.01784000  1.0
  C  C435  1  0.67639000  0.77399000  0.01749000  1.0
  C  C436  1  0.69926000  0.81175000  0.02645000  1.0
  C  C437  1  0.68233000  0.83244000  0.03559000  1.0
  C  C438  1  0.69404000  0.75257000  0.00622000  1.0
  C  C439  1  0.70693000  0.75795000  0.97675000  1.0
  C  C440  1  0.72489000  0.73876000  0.96639000  1.0
  C  C441  1  0.73033000  0.71449000  0.98462000  1.0
  C  C442  1  0.71862000  0.71001000  0.01389000  1.0
  C  C443  1  0.70044000  0.72870000  0.02509000  1.0
  C  C444  1  0.98718000  0.25706000  0.97954000  1.0
  C  C445  1  0.99520000  0.27124000  0.00817000  1.0
  C  C446  1  0.03196000  0.28884000  0.01903000  1.0
  C  C447  1  0.06131000  0.29206000  0.00059000  1.0
  C  C448  1  0.05304000  0.27675000  0.97174000  1.0
  C  C449  1  0.01592000  0.25937000  0.96170000  1.0
  C  C450  1  0.10051000  0.31254000  0.01110000  1.0
  C  C451  1  0.11553000  0.29283000  0.02642000  1.0
  C  C452  1  0.15218000  0.31252000  0.03727000  1.0
  C  C453  1  0.17447000  0.35112000  0.03285000  1.0
  C  C454  1  0.15985000  0.37041000  0.01734000  1.0
  C  C455  1  0.12302000  0.35185000  0.00637000  1.0
  C  C456  1  0.64424000  0.82434000  0.47159000  1.0
  C  C457  1  0.68306000  0.84624000  0.46805000  1.0
  C  C458  1  0.70232000  0.88387000  0.47674000  1.0
  C  C459  1  0.68214000  0.89986000  0.48989000  1.0
  C  C460  1  0.64272000  0.87766000  0.49392000  1.0
  C  C461  1  0.62438000  0.84014000  0.48454000  1.0
  C  C462  1  0.70238000  0.93944000  0.49967000  1.0
  C  C463  1  0.70715000  0.96855000  0.48020000  1.0
  C  C464  1  0.72585000  0.00575000  0.49024000  1.0
  C  C465  1  0.73895000  0.01438000  0.51914000  1.0
  C  C466  1  0.73460000  0.98575000  0.53809000  1.0
  C  C467  1  0.71686000  0.94835000  0.52873000  1.0
  C  C468  1  0.17705000  0.35410000  0.46640000  1.0
  C  C469  1  0.21148000  0.37419000  0.48089000  1.0
  C  C470  1  0.23125000  0.35650000  0.49083000  1.0
  C  C471  1  0.21586000  0.31736000  0.48566000  1.0
  C  C472  1  0.18118000  0.29702000  0.47058000  1.0
  C  C473  1  0.16218000  0.31568000  0.46143000  1.0
  C  C474  1  0.23506000  0.29736000  0.49674000  1.0
  C  C475  1  0.22770000  0.28255000  0.52568000  1.0
  C  C476  1  0.24759000  0.26556000  0.53656000  1.0
  C  C477  1  0.27374000  0.26212000  0.51914000  1.0
  C  C478  1  0.27996000  0.27545000  0.49028000  1.0
  C  C479  1  0.26141000  0.29363000  0.47887000  1.0
  C  C480  1  0.98985000  0.73306000  0.52258000  1.0
  C  C481  1  0.01965000  0.75246000  0.54217000  1.0
  C  C482  1  0.05665000  0.77254000  0.53214000  1.0
  C  C483  1  0.06395000  0.77251000  0.50169000  1.0
  C  C484  1  0.03373000  0.75357000  0.48167000  1.0
  C  C485  1  0.99696000  0.73438000  0.49244000  1.0
  C  C486  1  0.10311000  0.79143000  0.49100000  1.0
  C  C487  1  0.12621000  0.77537000  0.49647000  1.0
  C  C488  1  0.16336000  0.79378000  0.48652000  1.0
  C  C489  1  0.17772000  0.82730000  0.47072000  1.0
  C  C490  1  0.15466000  0.84291000  0.46528000  1.0
  C  C491  1  0.11765000  0.82565000  0.47542000  1.0
  C  C492  1  0.78369000  0.16564000  0.67488000  1.0
  C  C493  1  0.78098000  0.14229000  0.69830000  1.0
  C  C494  1  0.79087000  0.15622000  0.72698000  1.0
  C  C495  1  0.80311000  0.19454000  0.73268000  1.0
  C  C496  1  0.80308000  0.21776000  0.70950000  1.0
  C  C497  1  0.79384000  0.20299000  0.68081000  1.0
  C  C498  1  0.81712000  0.21002000  0.76257000  1.0
  C  C499  1  0.85590000  0.22598000  0.76895000  1.0
  C  C500  1  0.86809000  0.23320000  0.79824000  1.0
  C  C501  1  0.84281000  0.22496000  0.82141000  1.0
  C  C502  1  0.80481000  0.21096000  0.81499000  1.0
  C  C503  1  0.79147000  0.20320000  0.78585000  1.0
  C  C504  1  0.37257000  0.16032000  0.82776000  1.0
  C  C505  1  0.35661000  0.13545000  0.80413000  1.0
  C  C506  1  0.35992000  0.14847000  0.77521000  1.0
  C  C507  1  0.38040000  0.18755000  0.76963000  1.0
  C  C508  1  0.39824000  0.21283000  0.79333000  1.0
  C  C509  1  0.39388000  0.19881000  0.82213000  1.0
  C  C510  1  0.38086000  0.20167000  0.73941000  1.0
  C  C511  1  0.35803000  0.21768000  0.73262000  1.0
  C  C512  1  0.35527000  0.22697000  0.70343000  1.0
  C  C513  1  0.37396000  0.21999000  0.68065000  1.0
  C  C514  1  0.39773000  0.20567000  0.68756000  1.0
  C  C515  1  0.40172000  0.19668000  0.71670000  1.0
  C  C516  1  0.79094000  0.62075000  0.82752000  1.0
  C  C517  1  0.76304000  0.59422000  0.80912000  1.0
  C  C518  1  0.77057000  0.59029000  0.77954000  1.0
  C  C519  1  0.80730000  0.61338000  0.76833000  1.0
  C  C520  1  0.83592000  0.63927000  0.78730000  1.0
  C  C521  1  0.82726000  0.64260000  0.81653000  1.0
  C  C522  1  0.81465000  0.61479000  0.73622000  1.0
  C  C523  1  0.80683000  0.63813000  0.71798000  1.0
  C  C524  1  0.81755000  0.64266000  0.68838000  1.0
  C  C525  1  0.83598000  0.62474000  0.67646000  1.0
  C  C526  1  0.84177000  0.60007000  0.69400000  1.0
  C  C527  1  0.83115000  0.59455000  0.72377000  1.0
  C  C528  1  0.17566000  0.72227000  0.18907000  1.0
  C  C529  1  0.16282000  0.71127000  0.21787000  1.0
  C  C530  1  0.18384000  0.73209000  0.24235000  1.0
  C  C531  1  0.21898000  0.76504000  0.23792000  1.0
  C  C532  1  0.23238000  0.77611000  0.20884000  1.0
  C  C533  1  0.21053000  0.75466000  0.18499000  1.0
  C  C534  1  0.24118000  0.78826000  0.26345000  1.0
  C  C535  1  0.26709000  0.78033000  0.27812000  1.0
  C  C536  1  0.28681000  0.80190000  0.30273000  1.0
  C  C537  1  0.28243000  0.83188000  0.31246000  1.0
  C  C538  1  0.25778000  0.84032000  0.29737000  1.0
  C  C539  1  0.23663000  0.81864000  0.27332000  1.0
  C  C540  1  0.55546000  0.83593000  0.19347000  1.0
  C  C541  1  0.58824000  0.84210000  0.20779000  1.0
  C  C542  1  0.58701000  0.82053000  0.23216000  1.0
  C  C543  1  0.55176000  0.79178000  0.24252000  1.0
  C  C544  1  0.51836000  0.78572000  0.22824000  1.0
  C  C545  1  0.52079000  0.80795000  0.20396000  1.0
  C  C546  1  0.54991000  0.76833000  0.26813000  1.0
  C  C547  1  0.54849000  0.78035000  0.29712000  1.0
  C  C548  1  0.54832000  0.75878000  0.32110000  1.0
  C  C549  1  0.54819000  0.72478000  0.31714000  1.0
  C  C550  1  0.54867000  0.71262000  0.28840000  1.0
  C  C551  1  0.55008000  0.73409000  0.26385000  1.0
  C  C552  1  0.27906000  0.45652000  0.18869000  1.0
  C  C553  1  0.29133000  0.45570000  0.21732000  1.0
  C  C554  1  0.27148000  0.45691000  0.24211000  1.0
  C  C555  1  0.23821000  0.45905000  0.23818000  1.0
  C  C556  1  0.22608000  0.46080000  0.20926000  1.0
  C  C557  1  0.24657000  0.45936000  0.18510000  1.0
  C  C558  1  0.21540000  0.45795000  0.26402000  1.0
  C  C559  1  0.22292000  0.49151000  0.27882000  1.0
  C  C560  1  0.20122000  0.48953000  0.30337000  1.0
  C  C561  1  0.17139000  0.45530000  0.31281000  1.0
  C  C562  1  0.16348000  0.42247000  0.29769000  1.0
  C  C563  1  0.18539000  0.42314000  0.27377000  1.0
  C  C564  1  0.07311000  0.56690000  0.06188000  1.0
  C  C565  1  0.09387000  0.56348000  0.03890000  1.0
  C  C566  1  0.08083000  0.52940000  0.02362000  1.0
  C  C567  1  0.04600000  0.49807000  0.03182000  1.0
  C  C568  1  0.02640000  0.50085000  0.05650000  1.0
  C  C569  1  0.04030000  0.53523000  0.07117000  1.0
  C  C570  1  0.02706000  0.46442000  0.01256000  1.0
  C  C571  1  0.03353000  0.43362000  0.01614000  1.0
  C  C572  1  0.01161000  0.40063000  0.99997000  1.0
  C  C573  1  0.98323000  0.39736000  0.98108000  1.0
  C  C574  1  0.97735000  0.42773000  0.97721000  1.0
  C  C575  1  0.99914000  0.46145000  0.99245000  1.0
  C  C576  1  0.42372000  0.02010000  0.97714000  1.0
  C  C577  1  0.46213000  0.03298000  0.97896000  1.0
  C  C578  1  0.47580000  0.01232000  0.99393000  1.0
  C  C579  1  0.45029000  0.97879000  0.00867000  1.0
  C  C580  1  0.41118000  0.96538000  0.00647000  1.0
  C  C581  1  0.39844000  0.98593000  0.99012000  1.0
  C  C582  1  0.46506000  0.95959000  0.02772000  1.0
  C  C583  1  0.48409000  0.97718000  0.05413000  1.0
  C  C584  1  0.50350000  0.96250000  0.06955000  1.0
  C  C585  1  0.50354000  0.93020000  0.05978000  1.0
  C  C586  1  0.48172000  0.91081000  0.03535000  1.0
  C  C587  1  0.46283000  0.92535000  0.01885000  1.0
  C  C588  1  0.59299000  0.56513000  0.97283000  1.0
  C  C589  1  0.57085000  0.52792000  0.98180000  1.0
  C  C590  1  0.53655000  0.51604000  0.99605000  1.0
  C  C591  1  0.52488000  0.54254000  0.00264000  1.0
  C  C592  1  0.54647000  0.57989000  0.99249000  1.0
  C  C593  1  0.57996000  0.59052000  0.97725000  1.0
  C  C594  1  0.49131000  0.53122000  0.02141000  1.0
  C  C595  1  0.49190000  0.52090000  0.05111000  1.0
  C  C596  1  0.45837000  0.50351000  0.06711000  1.0
  C  C597  1  0.42481000  0.49793000  0.05474000  1.0
  C  C598  1  0.42511000  0.51185000  0.02660000  1.0
  C  C599  1  0.45775000  0.52765000  0.00942000  1.0
  C  C600  1  0.41644000  0.40197000  0.52640000  1.0
  C  C601  1  0.39054000  0.40704000  0.50989000  1.0
  C  C602  1  0.40119000  0.44082000  0.49503000  1.0
  C  C603  1  0.43884000  0.47054000  0.49742000  1.0
  C  C604  1  0.46482000  0.46563000  0.51495000  1.0
  C  C605  1  0.45327000  0.43117000  0.52893000  1.0
  C  C606  1  0.45276000  0.50444000  0.47857000  1.0
  C  C607  1  0.45342000  0.53749000  0.48907000  1.0
  C  C608  1  0.47380000  0.57114000  0.47329000  1.0
  C  C609  1  0.49394000  0.57273000  0.44803000  1.0
  C  C610  1  0.49129000  0.53973000  0.43694000  1.0
  C  C611  1  0.47078000  0.50556000  0.45169000  1.0
  C  C612  1  0.07654000  0.50568000  0.44772000  1.0
  C  C613  1  0.09141000  0.52061000  0.47541000  1.0
  C  C614  1  0.07624000  0.53848000  0.49241000  1.0
  C  C615  1  0.04659000  0.54290000  0.48067000  1.0
  C  C616  1  0.03454000  0.53154000  0.45131000  1.0
  C  C617  1  0.04913000  0.51232000  0.43548000  1.0
  C  C618  1  0.02549000  0.55573000  0.49952000  1.0
  C  C619  1  0.04169000  0.59368000  0.50862000  1.0
  C  C620  1  0.01962000  0.60549000  0.52391000  1.0
  C  C621  1  0.98160000  0.58074000  0.52927000  1.0
  C  C622  1  0.96614000  0.54307000  0.52125000  1.0
  C  C623  1  0.98777000  0.53001000  0.50706000  1.0
  C  C624  1  0.59928000  0.01494000  0.52396000  1.0
  C  C625  1  0.59645000  0.98733000  0.50442000  1.0
  C  C626  1  0.56296000  0.96439000  0.48919000  1.0
  C  C627  1  0.53180000  0.97007000  0.49334000  1.0
  C  C628  1  0.53413000  0.99675000  0.51449000  1.0
  C  C629  1  0.56796000  0.01877000  0.52956000  1.0
  C  C630  1  0.49777000  0.95017000  0.47458000  1.0
  C  C631  1  0.46489000  0.91887000  0.48572000  1.0
  C  C632  1  0.43076000  0.90600000  0.47057000  1.0
  C  C633  1  0.42871000  0.92386000  0.44501000  1.0
  C  C634  1  0.46159000  0.95301000  0.43314000  1.0
  C  C635  1  0.49617000  0.96637000  0.44743000  1.0
  N  N636  1  0.91498000  0.28585000  0.95148000  1.0
  N  N637  1  0.88068000  0.23239000  0.91014000  1.0
  N  N638  1  0.37187000  0.08338000  0.95319000  1.0
  N  N639  1  0.34823000  0.11825000  0.91572000  1.0
  N  N640  1  0.70860000  0.61681000  0.95182000  1.0
  N  N641  1  0.76722000  0.64160000  0.91483000  1.0
  N  N642  1  0.37221000  0.28876000  0.55173000  1.0
  N  N643  1  0.35027000  0.23286000  0.59109000  1.0
  N  N644  1  0.91735000  0.63275000  0.55106000  1.0
  N  N645  1  0.88048000  0.65277000  0.58953000  1.0
  N  N646  1  0.71208000  0.08715000  0.54833000  1.0
  N  N647  1  0.76898000  0.12406000  0.58662000  1.0
  N  N648  1  0.11441000  0.70565000  0.06283000  1.0
  N  N649  1  0.10987000  0.66904000  0.11212000  1.0
  N  N650  1  0.56821000  0.89492000  0.11311000  1.0
  N  N651  1  0.59788000  0.88444000  0.06480000  1.0
  N  N652  1  0.28710000  0.40359000  0.06381000  1.0
  N  N653  1  0.32743000  0.43852000  0.11103000  1.0
  N  N654  1  0.59211000  0.71082000  0.44247000  1.0
  N  N655  1  0.55853000  0.67133000  0.39470000  1.0
  N  N656  1  0.10936000  0.44145000  0.39160000  1.0
  N  N657  1  0.11415000  0.40583000  0.43863000  1.0
  N  N658  1  0.29070000  0.88608000  0.44029000  1.0
  N  N659  1  0.33002000  0.89218000  0.39221000  1.0
  N  N660  1  0.76416000  0.06373000  0.06063000  1.0
  N  N661  1  0.68554000  0.04615000  0.97171000  1.0
  N  N662  1  0.72618000  0.12704000  0.01137000  1.0
  N  N663  1  0.78918000  0.05183000  0.99101000  1.0
  N  N664  1  0.33872000  0.30005000  0.97445000  1.0
  N  N665  1  0.31819000  0.24376000  0.07468000  1.0
  N  N666  1  0.26463000  0.21413000  0.99105000  1.0
  N  N667  1  0.39364000  0.26084000  0.03106000  1.0
  N  N668  1  0.86697000  0.58835000  0.01927000  1.0
  N  N669  1  0.94195000  0.72562000  0.99900000  1.0
  N  N670  1  0.93307000  0.68940000  0.06796000  1.0
  N  N671  1  0.94574000  0.62640000  0.97814000  1.0
  N  N672  1  0.31877000  0.07394000  0.43581000  1.0
  N  N673  1  0.35370000  0.04234000  0.53286000  1.0
  N  N674  1  0.40516000  0.13235000  0.48653000  1.0
  N  N675  1  0.26912000  0.05403000  0.51133000  1.0
  N  N676  1  0.78229000  0.73368000  0.51033000  1.0
  N  N677  1  0.72843000  0.59782000  0.48531000  1.0
  N  N678  1  0.68501000  0.64106000  0.53208000  1.0
  N  N679  1  0.75499000  0.69028000  0.43785000  1.0
  N  N680  1  0.95285000  0.31164000  0.52691000  1.0
  N  N681  1  0.92623000  0.24908000  0.42845000  1.0
  N  N682  1  0.94706000  0.22317000  0.51008000  1.0
  N  N683  1  0.86265000  0.27046000  0.47452000  1.0
  N  N684  1  0.19005000  0.91763000  0.95832000  1.0
  N  N685  1  0.28111000  0.94699000  0.04078000  1.0
  N  N686  1  0.16468000  0.90250000  0.03144000  1.0
  N  N687  1  0.26176000  0.87845000  0.98582000  1.0
  N  N688  1  0.73958000  0.82972000  0.02607000  1.0
  N  N689  1  0.61220000  0.71925000  0.00913000  1.0
  N  N690  1  0.70216000  0.78275000  0.95704000  1.0
  N  N691  1  0.68992000  0.72390000  0.05570000  1.0
  N  N692  1  0.08161000  0.27837000  0.95238000  1.0
  N  N693  1  0.03911000  0.30498000  0.04810000  1.0
  N  N694  1  0.09380000  0.25312000  0.03184000  1.0
  N  N695  1  0.10982000  0.37330000  0.98997000  1.0
  N  N696  1  0.62067000  0.89277000  0.50649000  1.0
  N  N697  1  0.74238000  0.90488000  0.47284000  1.0
  N  N698  1  0.69375000  0.96116000  0.45025000  1.0
  N  N699  1  0.71240000  0.91984000  0.54942000  1.0
  N  N700  1  0.16408000  0.25726000  0.46539000  1.0
  N  N701  1  0.26693000  0.37898000  0.50537000  1.0
  N  N702  1  0.20157000  0.28602000  0.54478000  1.0
  N  N703  1  0.26955000  0.30775000  0.44920000  1.0
  N  N704  1  0.03979000  0.75266000  0.45057000  1.0
  N  N705  1  0.08638000  0.79236000  0.55314000  1.0
  N  N706  1  0.11240000  0.74034000  0.51182000  1.0
  N  N707  1  0.09550000  0.84342000  0.46993000  1.0
  N  N708  1  0.81359000  0.25649000  0.71439000  1.0
  N  N709  1  0.78859000  0.13097000  0.74988000  1.0
  N  N710  1  0.88292000  0.23223000  0.74637000  1.0
  N  N711  1  0.75179000  0.18684000  0.78051000  1.0
  N  N712  1  0.42016000  0.25268000  0.78866000  1.0
  N  N713  1  0.34130000  0.12162000  0.75203000  1.0
  N  N714  1  0.33641000  0.22350000  0.75479000  1.0
  N  N715  1  0.42630000  0.18177000  0.72272000  1.0
  N  N716  1  0.87320000  0.66430000  0.77682000  1.0
  N  N717  1  0.74039000  0.56391000  0.76109000  1.0
  N  N718  1  0.78840000  0.65778000  0.72901000  1.0
  N  N719  1  0.83874000  0.56965000  0.74115000  1.0
  N  N720  1  0.26830000  0.80852000  0.20293000  1.0
  N  N721  1  0.16831000  0.71995000  0.27131000  1.0
  N  N722  1  0.27291000  0.74992000  0.26905000  1.0
  N  N723  1  0.21130000  0.82843000  0.25899000  1.0
  N  N724  1  0.48176000  0.75785000  0.23831000  1.0
  N  N725  1  0.62187000  0.82729000  0.24518000  1.0
  N  N726  1  0.54863000  0.81500000  0.30275000  1.0
  N  N727  1  0.55084000  0.72018000  0.23488000  1.0
  N  N728  1  0.19353000  0.46468000  0.20380000  1.0
  N  N729  1  0.28485000  0.45447000  0.27090000  1.0
  N  N730  1  0.25295000  0.52762000  0.26985000  1.0
  N  N731  1  0.17612000  0.38830000  0.25936000  1.0
  N  N732  1  0.99128000  0.46970000  0.06592000  1.0
  N  N733  1  0.10175000  0.52812000  0.99862000  1.0
  N  N734  1  0.06109000  0.43465000  0.03651000  1.0
  N  N735  1  0.99146000  0.49179000  0.98815000  1.0
  N  N736  1  0.38417000  0.93211000  0.02160000  1.0
  N  N737  1  0.51562000  0.02621000  0.99455000  1.0
  N  N738  1  0.48515000  0.01071000  0.06494000  1.0
  N  N739  1  0.44325000  0.90594000  0.99254000  1.0
  N  N740  1  0.53557000  0.60764000  0.99821000  1.0
  N  N741  1  0.51426000  0.47720000  0.00415000  1.0
  N  N742  1  0.52595000  0.52656000  0.06486000  1.0
  N  N743  1  0.45559000  0.53778000  0.97948000  1.0
  N  N744  1  0.50342000  0.49456000  0.51761000  1.0
  N  N745  1  0.37419000  0.44331000  0.47617000  1.0
  N  N746  1  0.43627000  0.53826000  0.51661000  1.0
  N  N747  1  0.47069000  0.47284000  0.44009000  1.0
  N  N748  1  0.00639000  0.53787000  0.43779000  1.0
  N  N749  1  0.08978000  0.54980000  0.52196000  1.0
  N  N750  1  0.07982000  0.62082000  0.50163000  1.0
  N  N751  1  0.97080000  0.49077000  0.49986000  1.0
  N  N752  1  0.50293000  0.00257000  0.52057000  1.0
  N  N753  1  0.56184000  0.93709000  0.46859000  1.0
  N  N754  1  0.46515000  0.90136000  0.51313000  1.0
  N  N755  1  0.52849000  0.99860000  0.43548000  1.0
  O  O756  1  0.91964000  0.23655000  0.98312000  1.0
  O  O757  1  0.94348000  0.24347000  0.93839000  1.0
  O  O758  1  0.87787000  0.18457000  0.94888000  1.0
  O  O759  1  0.85275000  0.21894000  0.96311000  1.0
  O  O760  1  0.31901000  0.07474000  0.98797000  1.0
  O  O761  1  0.30017000  0.05330000  0.94279000  1.0
  O  O762  1  0.30462000  0.11730000  0.95750000  1.0
  O  O763  1  0.36459000  0.14332000  0.96961000  1.0
  O  O764  1  0.75216000  0.66810000  0.98805000  1.0
  O  O765  1  0.74956000  0.68864000  0.94356000  1.0
  O  O766  1  0.80887000  0.68343000  0.95765000  1.0
  O  O767  1  0.77541000  0.62292000  0.96791000  1.0
  O  O768  1  0.32120000  0.24162000  0.51697000  1.0
  O  O769  1  0.30091000  0.24606000  0.56109000  1.0
  O  O770  1  0.30871000  0.18755000  0.54975000  1.0
  O  O771  1  0.36877000  0.22227000  0.53845000  1.0
  O  O772  1  0.92276000  0.68544000  0.51736000  1.0
  O  O773  1  0.94426000  0.70356000  0.56261000  1.0
  O  O774  1  0.87870000  0.69615000  0.54874000  1.0
  O  O775  1  0.85515000  0.63662000  0.53592000  1.0
  O  O776  1  0.75898000  0.08178000  0.51415000  1.0
  O  O777  1  0.75637000  0.06030000  0.55923000  1.0
  O  O778  1  0.81359000  0.12589000  0.54545000  1.0
  O  O779  1  0.77724000  0.14942000  0.53294000  1.0
  O  O780  1  0.05484000  0.64658000  0.04453000  1.0
  O  O781  1  0.04873000  0.66928000  0.08704000  1.0
  O  O782  1  0.05614000  0.60929000  0.08715000  1.0
  O  O783  1  0.10928000  0.63643000  0.06222000  1.0
  O  O784  1  0.56274000  0.94733000  0.08489000  1.0
  O  O785  1  0.53507000  0.89196000  0.06293000  1.0
  O  O786  1  0.59916000  0.94306000  0.04276000  1.0
  O  O787  1  0.62905000  0.95250000  0.08516000  1.0
  O  O788  1  0.34429000  0.40073000  0.04370000  1.0
  O  O789  1  0.32526000  0.37535000  0.08762000  1.0
  O  O790  1  0.38522000  0.44205000  0.08399000  1.0
  O  O791  1  0.35585000  0.46633000  0.05928000  1.0
  O  O792  1  0.59263000  0.65245000  0.46312000  1.0
  O  O793  1  0.61996000  0.67178000  0.41984000  1.0
  O  O794  1  0.55269000  0.61266000  0.42185000  1.0
  O  O795  1  0.52804000  0.64230000  0.44569000  1.0
  O  O796  1  0.05740000  0.44831000  0.41924000  1.0
  O  O797  1  0.11111000  0.47067000  0.44337000  1.0
  O  O798  1  0.05589000  0.40632000  0.45944000  1.0
  O  O799  1  0.04797000  0.38029000  0.41548000  1.0
  O  O800  1  0.34917000  0.94400000  0.46122000  1.0
  O  O801  1  0.32959000  0.95272000  0.41815000  1.0
  O  O802  1  0.38869000  0.94380000  0.41971000  1.0
  O  O803  1  0.35910000  0.88952000  0.44303000  1.0
  O  O804  1  0.78550000  0.09986000  0.05859000  1.0
  O  O805  1  0.77283000  0.04564000  0.07971000  1.0
  O  O806  1  0.65301000  0.04115000  0.96348000  1.0
  O  O807  1  0.71184000  0.05613000  0.95214000  1.0
  O  O808  1  0.71123000  0.11188000  0.03645000  1.0
  O  O809  1  0.71646000  0.14957000  0.99906000  1.0
  O  O810  1  0.75897000  0.01936000  0.98862000  1.0
  O  O811  1  0.82149000  0.05311000  0.99166000  1.0
  O  O812  1  0.35970000  0.28734000  0.96382000  1.0
  O  O813  1  0.32602000  0.31604000  0.95670000  1.0
  O  O814  1  0.32842000  0.25096000  0.10208000  1.0
  O  O815  1  0.29937000  0.20895000  0.06623000  1.0
  O  O816  1  0.25240000  0.22622000  0.01245000  1.0
  O  O817  1  0.24397000  0.20069000  0.96762000  1.0
  O  O818  1  0.40509000  0.29655000  0.02994000  1.0
  O  O819  1  0.41415000  0.24966000  0.04484000  1.0
  O  O820  1  0.88328000  0.58852000  0.04385000  1.0
  O  O821  1  0.84362000  0.55627000  0.00739000  1.0
  O  O822  1  0.94073000  0.75665000  0.00067000  1.0
  O  O823  1  0.97425000  0.72750000  0.99525000  1.0
  O  O824  1  0.89682000  0.67467000  0.06699000  1.0
  O  O825  1  0.95194000  0.71617000  0.08675000  1.0
  O  O826  1  0.93448000  0.64216000  0.95892000  1.0
  O  O827  1  0.95030000  0.59859000  0.96978000  1.0
  O  O828  1  0.30110000  0.09044000  0.44615000  1.0
  O  O829  1  0.32535000  0.07582000  0.40771000  1.0
  O  O830  1  0.34442000  0.01405000  0.55036000  1.0
  O  O831  1  0.37347000  0.07606000  0.54341000  1.0
  O  O832  1  0.40487000  0.11567000  0.46213000  1.0
  O  O833  1  0.43731000  0.15662000  0.49779000  1.0
  O  O834  1  0.26798000  0.02183000  0.51251000  1.0
  O  O835  1  0.23768000  0.05453000  0.51214000  1.0
  O  O836  1  0.75101000  0.73410000  0.51347000  1.0
  O  O837  1  0.81349000  0.76549000  0.50951000  1.0
  O  O838  1  0.73816000  0.57471000  0.47410000  1.0
  O  O839  1  0.69302000  0.58770000  0.48616000  1.0
  O  O840  1  0.71342000  0.65766000  0.54990000  1.0
  O  O841  1  0.65296000  0.61570000  0.54261000  1.0
  O  O842  1  0.77715000  0.67627000  0.44067000  1.0
  O  O843  1  0.76135000  0.71401000  0.41671000  1.0
  O  O844  1  0.91856000  0.29870000  0.53585000  1.0
  O  O845  1  0.98005000  0.32909000  0.54567000  1.0
  O  O846  1  0.92648000  0.25448000  0.40026000  1.0
  O  O847  1  0.90847000  0.21489000  0.43826000  1.0
  O  O848  1  0.97058000  0.23483000  0.48829000  1.0
  O  O849  1  0.95537000  0.21061000  0.53352000  1.0
  O  O850  1  0.88032000  0.28641000  0.45043000  1.0
  O  O851  1  0.83626000  0.27687000  0.48352000  1.0
  O  O852  1  0.18295000  0.88348000  0.95354000  1.0
  O  O853  1  0.16978000  0.92943000  0.94497000  1.0
  O  O854  1  0.31679000  0.96475000  0.04674000  1.0
  O  O855  1  0.25829000  0.92209000  0.05932000  1.0
  O  O856  1  0.18628000  0.93710000  0.03955000  1.0
  O  O857  1  0.12854000  0.88857000  0.03272000  1.0
  O  O858  1  0.27299000  0.90546000  0.96676000  1.0
  O  O859  1  0.27883000  0.85889000  0.98664000  1.0
  O  O860  1  0.75673000  0.81146000  0.03348000  1.0
  O  O861  1  0.75946000  0.86558000  0.02135000  1.0
  O  O862  1  0.57871000  0.70064000  0.02022000  1.0
  O  O863  1  0.62172000  0.70354000  0.98857000  1.0
  O  O864  1  0.67165000  0.78501000  0.95738000  1.0
  O  O865  1  0.72668000  0.80023000  0.93649000  1.0
  O  O866  1  0.66047000  0.72509000  0.06466000  1.0
  O  O867  1  0.70826000  0.71525000  0.07458000  1.0
  O  O868  1  0.11535000  0.30701000  0.95252000  1.0
  O  O869  1  0.07299000  0.25257000  0.93247000  1.0
  O  O870  1  0.01807000  0.31763000  0.05875000  1.0
  O  O871  1  0.06413000  0.30408000  0.06511000  1.0
  O  O872  1  0.07092000  0.23041000  0.01206000  1.0
  O  O873  1  0.09979000  0.23897000  0.05545000  1.0
  O  O874  1  0.07431000  0.36120000  0.98580000  1.0
  O  O875  1  0.13365000  0.40621000  0.97977000  1.0
  O  O876  1  0.63457000  0.91916000  0.52623000  1.0
  O  O877  1  0.58527000  0.87789000  0.49996000  1.0
  O  O878  1  0.76202000  0.88790000  0.47389000  1.0
  O  O879  1  0.75902000  0.93999000  0.46529000  1.0
  O  O880  1  0.66349000  0.93039000  0.44311000  1.0
  O  O881  1  0.71012000  0.98685000  0.43027000  1.0
  O  O882  1  0.71468000  0.89074000  0.54101000  1.0
  O  O883  1  0.70983000  0.92479000  0.57739000  1.0
  O  O884  1  0.18424000  0.24202000  0.45834000  1.0
  O  O885  1  0.12775000  0.23664000  0.46465000  1.0
  O  O886  1  0.28492000  0.41521000  0.50214000  1.0
  O  O887  1  0.28071000  0.36429000  0.52336000  1.0
  O  O888  1  0.17043000  0.28263000  0.53459000  1.0
  O  O889  1  0.20703000  0.28876000  0.57308000  1.0
  O  O890  1  0.26916000  0.33816000  0.44184000  1.0
  O  O891  1  0.28081000  0.29203000  0.42993000  1.0
  O  O892  1  0.06798000  0.74969000  0.44080000  1.0
  O  O893  1  0.01472000  0.75049000  0.43193000  1.0
  O  O894  1  0.08282000  0.78028000  0.58002000  1.0
  O  O895  1  0.11524000  0.82453000  0.54656000  1.0
  O  O896  1  0.07850000  0.71302000  0.50735000  1.0
  O  O897  1  0.13503000  0.73423000  0.52795000  1.0
  O  O898  1  0.07210000  0.84267000  0.48953000  1.0
  O  O899  1  0.10159000  0.86391000  0.44658000  1.0
  O  O900  1  0.80871000  0.26790000  0.73984000  1.0
  O  O901  1  0.82551000  0.28014000  0.69266000  1.0
  O  O902  1  0.76223000  0.09606000  0.74913000  1.0
  O  O903  1  0.81514000  0.14122000  0.76935000  1.0
  O  O904  1  0.88157000  0.24635000  0.72114000  1.0
  O  O905  1  0.91161000  0.22791000  0.75216000  1.0
  O  O906  1  0.73929000  0.19273000  0.75596000  1.0
  O  O907  1  0.72788000  0.16829000  0.80119000  1.0
  O  O908  1  0.43938000  0.26602000  0.76465000  1.0
  O  O909  1  0.42385000  0.27590000  0.80960000  1.0
  O  O910  1  0.33850000  0.08868000  0.75345000  1.0
  O  O911  1  0.32303000  0.12795000  0.73152000  1.0
  O  O912  1  0.31846000  0.19825000  0.77475000  1.0
  O  O913  1  0.33064000  0.25187000  0.75280000  1.0
  O  O914  1  0.44462000  0.18910000  0.74742000  1.0
  O  O915  1  0.43328000  0.16377000  0.70237000  1.0
  O  O916  1  0.88998000  0.65246000  0.75912000  1.0
  O  O917  1  0.89216000  0.69802000  0.78756000  1.0
  O  O918  1  0.70579000  0.55347000  0.76779000  1.0
  O  O919  1  0.74681000  0.54781000  0.73895000  1.0
  O  O920  1  0.79682000  0.67387000  0.75468000  1.0
  O  O921  1  0.76622000  0.66339000  0.71190000  1.0
  O  O922  1  0.81811000  0.55210000  0.76372000  1.0
  O  O923  1  0.86480000  0.56220000  0.73316000  1.0
  O  O924  1  0.28068000  0.83886000  0.21862000  1.0
  O  O925  1  0.28732000  0.80903000  0.17991000  1.0
  O  O926  1  0.13215000  0.70144000  0.27489000  1.0
  O  O927  1  0.18969000  0.72424000  0.29378000  1.0
  O  O928  1  0.27149000  0.74099000  0.24145000  1.0
  O  O929  1  0.28322000  0.73322000  0.28818000  1.0
  O  O930  1  0.17933000  0.80273000  0.24852000  1.0
  O  O931  1  0.21852000  0.86307000  0.25892000  1.0
  O  O932  1  0.47600000  0.72608000  0.24902000  1.0
  O  O933  1  0.45310000  0.76279000  0.23432000  1.0
  O  O934  1  0.65193000  0.84010000  0.22915000  1.0
  O  O935  1  0.62485000  0.82412000  0.27336000  1.0
  O  O936  1  0.53043000  0.82599000  0.28576000  1.0
  O  O937  1  0.56388000  0.83389000  0.32667000  1.0
  O  O938  1  0.56976000  0.74294000  0.21371000  1.0
  O  O939  1  0.53543000  0.68429000  0.23024000  1.0
  O  O940  1  0.16391000  0.44803000  0.22028000  1.0
  O  O941  1  0.19215000  0.48235000  0.18052000  1.0
  O  O942  1  0.30363000  0.43686000  0.27443000  1.0
  O  O943  1  0.28152000  0.47250000  0.29316000  1.0
  O  O944  1  0.26187000  0.53510000  0.24230000  1.0
  O  O945  1  0.26933000  0.55448000  0.28905000  1.0
  O  O946  1  0.20220000  0.38213000  0.24924000  1.0
  O  O947  1  0.14161000  0.36101000  0.25896000  1.0
  O  O948  1  0.98574000  0.43566000  0.06504000  1.0
  O  O949  1  0.96606000  0.47561000  0.07822000  1.0
  O  O950  1  0.12411000  0.55871000  0.98457000  1.0
  O  O951  1  0.10111000  0.49722000  0.99113000  1.0
  O  O952  1  0.07167000  0.45649000  0.05944000  1.0
  O  O953  1  0.07395000  0.41156000  0.03334000  1.0
  O  O954  1  0.01857000  0.52633000  0.98735000  1.0
  O  O955  1  0.95768000  0.48471000  0.98170000  1.0
  O  O956  1  0.39171000  0.92340000  0.04722000  1.0
  O  O957  1  0.35021000  0.91278000  0.01142000  1.0
  O  O958  1  0.53892000  0.06203000  0.99288000  1.0
  O  O959  1  0.52882000  0.00321000  0.99344000  1.0
  O  O960  1  0.45607000  0.01525000  0.06237000  1.0
  O  O961  1  0.51378000  0.03508000  0.08014000  1.0
  O  O962  1  0.44393000  0.92435000  0.96908000  1.0
  O  O963  1  0.42806000  0.86968000  0.99091000  1.0
  O  O964  1  0.52229000  0.60954000  0.02371000  1.0
  O  O965  1  0.54221000  0.63341000  0.97879000  1.0
  O  O966  1  0.53031000  0.45745000  0.01011000  1.0
  O  O967  1  0.47789000  0.46029000  0.00235000  1.0
  O  O968  1  0.55787000  0.55609000  0.05888000  1.0
  O  O969  1  0.52470000  0.50432000  0.08572000  1.0
  O  O970  1  0.47271000  0.53066000  0.95852000  1.0
  O  O971  1  0.43271000  0.54993000  0.97254000  1.0
  O  O972  1  0.51231000  0.52956000  0.52007000  1.0
  O  O973  1  0.52956000  0.48567000  0.52091000  1.0
  O  O974  1  0.34635000  0.41304000  0.46518000  1.0
  O  O975  1  0.37601000  0.47529000  0.47084000  1.0
  O  O976  1  0.40908000  0.50793000  0.52794000  1.0
  O  O977  1  0.44660000  0.56997000  0.52995000  1.0
  O  O978  1  0.44060000  0.44016000  0.44118000  1.0
  O  O979  1  0.49942000  0.47624000  0.42545000  1.0
  O  O980  1  0.00506000  0.56830000  0.44331000  1.0
  O  O981  1  0.98438000  0.51510000  0.41761000  1.0
  O  O982  1  0.12470000  0.56104000  0.52822000  1.0
  O  O983  1  0.06675000  0.54477000  0.54333000  1.0
  O  O984  1  0.09404000  0.62038000  0.47619000  1.0
  O  O985  1  0.09927000  0.64849000  0.51955000  1.0
  O  O986  1  0.98995000  0.47335000  0.50183000  1.0
  O  O987  1  0.93502000  0.47133000  0.49452000  1.0
  O  O988  1  0.48137000  0.00244000  0.49954000  1.0
  O  O989  1  0.49869000  0.01256000  0.54681000  1.0
  O  O990  1  0.59268000  0.94145000  0.45693000  1.0
  O  O991  1  0.53065000  0.90655000  0.46278000  1.0
  O  O992  1  0.49505000  0.90091000  0.52203000  1.0
  O  O993  1  0.43449000  0.88316000  0.52831000  1.0
  O  O994  1  0.56118000  0.00078000  0.43569000  1.0
  O  O995  1  0.52455000  0.02391000  0.42124000  1.0
