# generated using pymatgen
data_CdH8C16N18O7
_symmetry_space_group_name_H-M   'P 1'
_cell_length_a   10.55590000
_cell_length_b   49.98010000
_cell_length_c   51.84600000
_cell_angle_alpha   90.00000000
_cell_angle_beta   90.00000000
_cell_angle_gamma   90.00000000
_symmetry_Int_Tables_number   1
_chemical_formula_structural   CdH8C16N18O7
_chemical_formula_sum   'Cd16 H128 C256 N288 O112'
_cell_volume   27353.16867429
_cell_formula_units_Z   16
loop_
 _symmetry_equiv_pos_site_id
 _symmetry_equiv_pos_as_xyz
  1  'x, y, z'
loop_
 _atom_site_type_symbol
 _atom_site_label
 _atom_site_symmetry_multiplicity
 _atom_site_fract_x
 _atom_site_fract_y
 _atom_site_fract_z
 _atom_site_occupancy
  C  C0  1  0.86387000  0.82991000  0.79825000  1.0
  C  C1  1  0.90716000  0.87106000  0.79777000  1.0
  C  C2  1  0.02436000  0.90698000  0.84773000  1.0
  C  C3  1  0.83099000  0.91413000  0.85553000  1.0
  C  C4  1  0.61254000  0.85465000  0.86065000  1.0
  C  C5  1  0.92675000  0.88401000  0.90901000  1.0
  C  C6  1  0.81333000  0.84992000  0.91564000  1.0
  C  C7  1  0.84610000  0.78911000  0.86254000  1.0
  C  C8  1  0.97722000  0.80403000  0.88986000  1.0
  C  C9  1  0.16300000  0.84847000  0.86357000  1.0
  C  C10  1  0.15933000  0.08961000  0.79433000  1.0
  C  C11  1  0.96561000  0.09531000  0.80260000  1.0
  C  C12  1  0.12896000  0.03569000  0.84439000  1.0
  C  C13  1  0.30746000  0.05237000  0.83535000  1.0
  C  C14  1  0.40103000  0.09627000  0.87665000  1.0
  C  C15  1  0.10889000  0.06327000  0.90503000  1.0
  C  C16  1  0.09114000  0.10395000  0.91554000  1.0
  C  C17  1  0.15386000  0.16196000  0.85738000  1.0
  C  C18  1  0.25102000  0.14679000  0.82479000  1.0
  C  C19  1  0.85594000  0.09333000  0.86727000  1.0
  C  C20  1  0.10691000  0.90098000  0.65416000  1.0
  C  C21  1  0.00347000  0.86975000  0.67185000  1.0
  C  C22  1  0.02653000  0.91760000  0.59553000  1.0
  C  C23  1  0.19496000  0.90378000  0.57809000  1.0
  C  C24  1  0.34325000  0.85037000  0.60438000  1.0
  C  C25  1  0.93856000  0.82536000  0.56672000  1.0
  C  C26  1  0.06732000  0.85217000  0.54948000  1.0
  C  C27  1  0.15760000  0.79869000  0.60838000  1.0
  C  C28  1  0.04369000  0.80421000  0.64146000  1.0
  C  C29  1  0.79120000  0.86593000  0.60694000  1.0
  C  C30  1  0.65313000  0.10577000  0.66402000  1.0
  C  C31  1  0.83626000  0.09518000  0.67704000  1.0
  C  C32  1  0.88491000  0.04439000  0.59578000  1.0
  C  C33  1  0.80333000  0.04052000  0.63273000  1.0
  C  C34  1  0.53985000  0.08640000  0.60810000  1.0
  C  C35  1  0.97552000  0.10030000  0.56312000  1.0
  C  C36  1  0.78621000  0.10806000  0.55223000  1.0
  C  C37  1  0.73903000  0.16010000  0.60413000  1.0
  C  C38  1  0.83565000  0.15728000  0.63981000  1.0
  C  C39  1  0.09304000  0.09351000  0.62670000  1.0
  C  C40  1  0.08373000  0.06243000  0.05970000  1.0
  C  C41  1  0.04770000  0.10255000  0.04902000  1.0
  C  C42  1  0.07988000  0.15571000  0.09852000  1.0
  C  C43  1  0.94177000  0.15196000  0.12788000  1.0
  C  C44  1  0.75487000  0.09647000  0.11767000  1.0
  C  C45  1  0.18294000  0.11847000  0.15544000  1.0
  C  C46  1  0.03660000  0.09644000  0.17353000  1.0
  C  C47  1  0.89328000  0.04095000  0.10739000  1.0
  C  C48  1  0.02647000  0.03707000  0.13743000  1.0
  C  C49  1  0.30594000  0.08272000  0.11005000  1.0
  C  C50  1  0.85174000  0.87557000  0.06255000  1.0
  C  C51  1  0.72854000  0.84609000  0.04773000  1.0
  C  C52  1  0.63946000  0.79223000  0.08825000  1.0
  C  C53  1  0.74480000  0.78798000  0.12244000  1.0
  C  C54  1  0.99278000  0.83464000  0.10499000  1.0
  C  C55  1  0.68412000  0.86868000  0.16845000  1.0
  C  C56  1  0.83263000  0.84058000  0.16693000  1.0
  C  C57  1  0.73014000  0.91356000  0.11264000  1.0
  C  C58  1  0.57438000  0.89970000  0.09068000  1.0
  C  C59  1  0.44590000  0.83995000  0.10238000  1.0
  C  C60  1  0.99030000  0.09310000  0.40970000  1.0
  C  C61  1  0.81352000  0.11091000  0.41815000  1.0
  C  C62  1  0.79766000  0.16609000  0.35891000  1.0
  C  C63  1  0.72668000  0.14936000  0.32429000  1.0
  C  C64  1  0.11828000  0.10153000  0.35194000  1.0
  C  C65  1  0.81795000  0.07622000  0.30051000  1.0
  C  C66  1  0.95009000  0.10779000  0.30022000  1.0
  C  C67  1  0.87485000  0.04030000  0.35074000  1.0
  C  C68  1  0.74655000  0.05047000  0.38043000  1.0
  C  C69  1  0.56971000  0.09904000  0.35342000  1.0
  C  C70  1  0.83719000  0.81670000  0.41175000  1.0
  C  C71  1  0.98404000  0.84462000  0.41818000  1.0
  C  C72  1  0.04646000  0.78639000  0.37312000  1.0
  C  C73  1  0.88370000  0.77726000  0.35137000  1.0
  C  C74  1  0.65793000  0.85929000  0.33821000  1.0
  C  C75  1  0.04714000  0.81618000  0.31081000  1.0
  C  C76  1  0.89765000  0.83847000  0.29427000  1.0
  C  C77  1  0.93195000  0.90338000  0.35470000  1.0
  C  C78  1  0.81342000  0.89085000  0.38533000  1.0
  C  C79  1  0.21150000  0.85051000  0.36274000  1.0
  C  C80  1  0.24128000  0.34963000  0.78575000  1.0
  C  C81  1  0.41337000  0.37100000  0.78532000  1.0
  C  C82  1  0.46089000  0.41423000  0.83111000  1.0
  C  C83  1  0.26517000  0.42064000  0.83646000  1.0
  C  C84  1  0.05866000  0.36391000  0.85768000  1.0
  C  C85  1  0.33282000  0.39080000  0.89604000  1.0
  C  C86  1  0.32136000  0.34957000  0.90483000  1.0
  C  C87  1  0.27271000  0.29782000  0.85365000  1.0
  C  C88  1  0.40010000  0.30260000  0.82247000  1.0
  C  C89  1  0.60564000  0.36100000  0.85998000  1.0
  C  C90  1  0.61703000  0.61779000  0.78167000  1.0
  C  C91  1  0.45741000  0.59297000  0.78737000  1.0
  C  C92  1  0.57061000  0.54272000  0.82785000  1.0
  C  C93  1  0.74560000  0.55911000  0.81601000  1.0
  C  C94  1  0.86106000  0.60187000  0.85620000  1.0
  C  C95  1  0.55309000  0.56786000  0.88944000  1.0
  C  C96  1  0.57921000  0.60789000  0.90131000  1.0
  C  C97  1  0.68930000  0.66171000  0.86027000  1.0
  C  C98  1  0.58140000  0.66736000  0.82647000  1.0
  C  C99  1  0.31429000  0.59898000  0.85087000  1.0
  C  C100  1  0.58344000  0.39254000  0.63829000  1.0
  C  C101  1  0.45196000  0.36744000  0.65741000  1.0
  C  C102  1  0.41056000  0.40999000  0.58512000  1.0
  C  C103  1  0.59568000  0.40445000  0.57052000  1.0
  C  C104  1  0.77066000  0.34029000  0.58777000  1.0
  C  C105  1  0.38894000  0.32463000  0.54602000  1.0
  C  C106  1  0.53776000  0.35053000  0.53549000  1.0
  C  C107  1  0.53826000  0.29010000  0.59626000  1.0
  C  C108  1  0.57452000  0.30657000  0.63314000  1.0
  C  C109  1  0.21918000  0.35342000  0.59127000  1.0
  C  C110  1  0.20509000  0.56915000  0.64566000  1.0
  C  C111  1  0.36064000  0.58984000  0.66193000  1.0
  C  C112  1  0.31594000  0.54379000  0.59026000  1.0
  C  C113  1  0.48035000  0.56170000  0.57471000  1.0
  C  C114  1  0.05548000  0.62446000  0.59033000  1.0
  C  C115  1  0.42518000  0.62917000  0.55238000  1.0
  C  C116  1  0.26832000  0.60513000  0.54191000  1.0
  C  C117  1  0.32516000  0.66705000  0.60766000  1.0
  C  C118  1  0.23622000  0.64978000  0.64024000  1.0
  C  C119  1  0.61217000  0.60649000  0.61322000  1.0
  C  C120  1  0.45069000  0.56873000  0.04264000  1.0
  C  C121  1  0.54531000  0.60497000  0.03427000  1.0
  C  C122  1  0.49898000  0.66420000  0.08902000  1.0
  C  C123  1  0.37078000  0.64721000  0.06233000  1.0
  C  C124  1  0.20365000  0.61034000  0.10365000  1.0
  C  C125  1  0.57289000  0.62829000  0.14511000  1.0
  C  C126  1  0.41951000  0.60270000  0.15390000  1.0
  C  C127  1  0.36801000  0.54403000  0.11441000  1.0
  C  C128  1  0.54259000  0.53886000  0.09515000  1.0
  C  C129  1  0.75361000  0.61087000  0.09114000  1.0
  C  C130  1  0.33465000  0.38678000  0.04972000  1.0
  C  C131  1  0.30988000  0.34638000  0.03879000  1.0
  C  C132  1  0.23878000  0.28929000  0.09608000  1.0
  C  C133  1  0.14367000  0.30610000  0.12818000  1.0
  C  C134  1  0.56373000  0.35788000  0.08927000  1.0
  C  C135  1  0.39779000  0.33017000  0.15332000  1.0
  C  C136  1  0.39711000  0.37222000  0.15506000  1.0
  C  C137  1  0.28221000  0.41496000  0.11038000  1.0
  C  C138  1  0.12517000  0.39502000  0.12682000  1.0
  C  C139  1  0.01911000  0.35856000  0.07914000  1.0
  C  C140  1  0.50083000  0.61410000  0.40194000  1.0
  C  C141  1  0.31190000  0.60169000  0.40833000  1.0
  C  C142  1  0.28532000  0.66545000  0.35797000  1.0
  C  C143  1  0.48354000  0.66042000  0.36173000  1.0
  C  C144  1  0.64608000  0.58508000  0.32944000  1.0
  C  C145  1  0.49728000  0.63360000  0.29916000  1.0
  C  C146  1  0.36967000  0.60371000  0.28657000  1.0
  C  C147  1  0.46244000  0.54838000  0.36721000  1.0
  C  C148  1  0.31534000  0.54414000  0.33987000  1.0
  C  C149  1  0.09160000  0.60416000  0.34821000  1.0
  C  C150  1  0.39147000  0.33986000  0.38923000  1.0
  C  C151  1  0.56671000  0.35400000  0.40317000  1.0
  C  C152  1  0.64444000  0.30006000  0.35139000  1.0
  C  C153  1  0.54574000  0.30396000  0.31606000  1.0
  C  C154  1  0.28041000  0.37001000  0.32916000  1.0
  C  C155  1  0.54236000  0.40690000  0.30083000  1.0
  C  C156  1  0.51684000  0.37066000  0.28051000  1.0
  C  C157  1  0.54097000  0.41923000  0.36437000  1.0
  C  C158  1  0.71602000  0.40134000  0.37378000  1.0
  C  C159  1  0.82577000  0.36780000  0.32444000  1.0
  C  C160  1  0.75850000  0.70697000  0.86724000  1.0
  C  C161  1  0.84364000  0.74280000  0.87738000  1.0
  C  C162  1  0.20858000  0.20894000  0.85154000  1.0
  C  C163  1  0.24759000  0.24951000  0.85086000  1.0
  C  C164  1  0.21154000  0.75235000  0.61491000  1.0
  C  C165  1  0.26868000  0.71296000  0.61552000  1.0
  C  C166  1  0.61266000  0.24526000  0.60474000  1.0
  C  C167  1  0.68107000  0.20671000  0.60648000  1.0
  C  C168  1  0.16268000  0.24364000  0.10086000  1.0
  C  C169  1  0.10998000  0.20375000  0.10081000  1.0
  C  C170  1  0.48851000  0.71018000  0.07380000  1.0
  C  C171  1  0.57246000  0.74655000  0.08260000  1.0
  C  C172  1  0.68662000  0.25229000  0.34901000  1.0
  C  C173  1  0.73379000  0.21216000  0.35115000  1.0
  C  C174  1  0.27781000  0.71252000  0.37084000  1.0
  C  C175  1  0.14960000  0.74385000  0.37264000  1.0
  C  C176  1  0.99494000  0.88871000  0.71530000  1.0
  C  C177  1  0.94149000  0.87721000  0.75226000  1.0
  C  C178  1  0.79018000  0.09725000  0.72358000  1.0
  C  C179  1  0.88524000  0.09472000  0.75866000  1.0
  C  C180  1  0.08067000  0.11129000  0.21797000  1.0
  C  C181  1  0.00885000  0.10673000  0.25511000  1.0
  C  C182  1  0.94611000  0.82801000  0.24897000  1.0
  C  C183  1  0.88065000  0.83689000  0.21214000  1.0
  C  C184  1  0.49437000  0.38365000  0.70143000  1.0
  C  C185  1  0.44116000  0.37567000  0.73932000  1.0
  C  C186  1  0.39818000  0.58648000  0.74273000  1.0
  C  C187  1  0.32510000  0.57700000  0.70675000  1.0
  C  C188  1  0.41817000  0.60858000  0.20044000  1.0
  C  C189  1  0.40158000  0.60907000  0.24031000  1.0
  C  C190  1  0.49124000  0.39030000  0.23738000  1.0
  C  C191  1  0.45679000  0.37809000  0.19968000  1.0
  C  C192  1  0.77231000  0.85269000  0.00209000  1.0
  C  C193  1  0.79429000  0.85425000  0.96234000  1.0
  C  C194  1  0.07566000  0.09756000  0.96225000  1.0
  C  C195  1  0.06581000  0.09713000  0.00233000  1.0
  C  C196  1  0.02015000  0.84322000  0.50461000  1.0
  C  C197  1  0.99350000  0.84149000  0.46494000  1.0
  C  C198  1  0.82095000  0.10908000  0.50538000  1.0
  C  C199  1  0.82892000  0.10928000  0.46527000  1.0
  C  C200  1  0.31954000  0.35283000  0.99202000  1.0
  C  C201  1  0.32041000  0.35381000  0.95192000  1.0
  C  C202  1  0.56654000  0.60073000  0.94765000  1.0
  C  C203  1  0.55528000  0.59993000  0.98758000  1.0
  C  C204  1  0.52565000  0.34557000  0.48902000  1.0
  C  C205  1  0.53169000  0.34738000  0.44895000  1.0
  C  C206  1  0.29786000  0.60763000  0.49517000  1.0
  C  C207  1  0.31468000  0.60510000  0.45543000  1.0
  C  C208  1  0.18161000  0.98911000  0.83712000  1.0
  C  C209  1  0.09332000  0.95254000  0.84210000  1.0
  C  C210  1  0.94849000  0.99901000  0.58902000  1.0
  C  C211  1  0.03415000  0.96312000  0.58009000  1.0
  C  C212  1  0.80278000  0.99688000  0.10806000  1.0
  C  C213  1  0.70718000  0.96114000  0.10217000  1.0
  C  C214  1  0.89546000  0.95116000  0.35837000  1.0
  C  C215  1  0.87461000  0.99226000  0.35667000  1.0
  C  C216  1  0.61551000  0.49619000  0.81813000  1.0
  C  C217  1  0.52665000  0.45966000  0.82345000  1.0
  C  C218  1  0.39223000  0.45733000  0.57811000  1.0
  C  C219  1  0.36258000  0.49804000  0.57949000  1.0
  C  C220  1  0.23229000  0.45996000  0.12425000  1.0
  C  C221  1  0.31253000  0.49750000  0.12002000  1.0
  C  C222  1  0.58525000  0.46388000  0.37981000  1.0
  C  C223  1  0.50967000  0.50164000  0.37397000  1.0
  C  C224  1  0.48523000  0.84685000  0.85436000  1.0
  C  C225  1  0.29170000  0.84378000  0.85585000  1.0
  C  C226  1  0.53265000  0.10494000  0.87526000  1.0
  C  C227  1  0.72767000  0.10356000  0.87073000  1.0
  C  C228  1  0.47163000  0.85282000  0.61351000  1.0
  C  C229  1  0.66259000  0.86077000  0.61480000  1.0
  C  C230  1  0.22204000  0.10008000  0.61920000  1.0
  C  C231  1  0.41006000  0.09601000  0.60866000  1.0
  C  C232  1  0.43530000  0.08982000  0.10402000  1.0
  C  C233  1  0.62639000  0.09709000  0.10804000  1.0
  C  C234  1  0.12336000  0.83610000  0.11303000  1.0
  C  C235  1  0.31785000  0.83834000  0.11195000  1.0
  C  C236  1  0.24745000  0.10944000  0.35635000  1.0
  C  C237  1  0.44158000  0.10770000  0.35788000  1.0
  C  C238  1  0.32891000  0.85804000  0.34931000  1.0
  C  C239  1  0.51863000  0.86078000  0.33836000  1.0
  C  C240  1  0.93007000  0.35462000  0.85509000  1.0
  C  C241  1  0.73562000  0.35305000  0.85645000  1.0
  C  C242  1  0.99152000  0.61028000  0.85426000  1.0
  C  C243  1  0.18604000  0.60899000  0.85173000  1.0
  C  C244  1  0.09134000  0.34705000  0.59869000  1.0
  C  C245  1  0.89921000  0.34079000  0.59699000  1.0
  C  C246  1  0.91822000  0.62672000  0.59471000  1.0
  C  C247  1  0.73124000  0.61976000  0.60589000  1.0
  C  C248  1  0.07359000  0.60202000  0.10196000  1.0
  C  C249  1  0.88168000  0.60219000  0.09558000  1.0
  C  C250  1  0.88778000  0.34942000  0.07883000  1.0
  C  C251  1  0.69259000  0.34907000  0.08357000  1.0
  C  C252  1  0.97448000  0.59416000  0.33629000  1.0
  C  C253  1  0.78508000  0.58562000  0.32856000  1.0
  C  C254  1  0.15226000  0.36034000  0.32526000  1.0
  C  C255  1  0.95694000  0.35934000  0.32324000  1.0
  Cd  Cd256  1  0.88911000  0.85178000  0.85567000  1.0
  Cd  Cd257  1  0.13248000  0.09868000  0.85447000  1.0
  Cd  Cd258  1  0.06644000  0.85810000  0.61169000  1.0
  Cd  Cd259  1  0.81540000  0.10128000  0.61441000  1.0
  Cd  Cd260  1  0.03142000  0.09521000  0.11019000  1.0
  Cd  Cd261  1  0.72313000  0.84968000  0.11042000  1.0
  Cd  Cd262  1  0.84532000  0.10367000  0.35712000  1.0
  Cd  Cd263  1  0.91640000  0.84018000  0.35806000  1.0
  Cd  Cd264  1  0.33376000  0.35901000  0.84329000  1.0
  Cd  Cd265  1  0.59064000  0.60571000  0.84044000  1.0
  Cd  Cd266  1  0.49554000  0.35228000  0.59700000  1.0
  Cd  Cd267  1  0.32074000  0.60498000  0.60291000  1.0
  Cd  Cd268  1  0.47609000  0.59989000  0.09435000  1.0
  Cd  Cd269  1  0.28954000  0.35179000  0.09991000  1.0
  Cd  Cd270  1  0.38688000  0.60509000  0.34789000  1.0
  Cd  Cd271  1  0.55616000  0.35988000  0.34166000  1.0
  H  H272  1  0.84354000  0.80982000  0.80476000  1.0
  H  H273  1  0.92930000  0.89129000  0.80340000  1.0
  H  H274  1  0.11376000  0.89731000  0.84369000  1.0
  H  H275  1  0.73151000  0.91139000  0.85937000  1.0
  H  H276  1  0.98562000  0.89910000  0.90019000  1.0
  H  H277  1  0.75982000  0.83164000  0.91304000  1.0
  H  H278  1  0.77801000  0.78767000  0.84699000  1.0
  H  H279  1  0.03663000  0.81719000  0.90109000  1.0
  H  H280  1  0.26090000  0.08794000  0.79619000  1.0
  H  H281  1  0.87723000  0.09924000  0.81247000  1.0
  H  H282  1  0.03186000  0.03312000  0.85052000  1.0
  H  H283  1  0.38356000  0.06640000  0.83198000  1.0
  H  H284  1  0.12202000  0.04508000  0.89425000  1.0
  H  H285  1  0.08675000  0.12557000  0.91480000  1.0
  H  H286  1  0.09920000  0.16342000  0.87500000  1.0
  H  H287  1  0.29254000  0.13341000  0.81082000  1.0
  H  H288  1  0.16083000  0.91268000  0.64053000  1.0
  H  H289  1  0.95176000  0.85149000  0.67538000  1.0
  H  H290  1  0.94179000  0.91897000  0.60723000  1.0
  H  H291  1  0.27474000  0.89176000  0.57246000  1.0
  H  H292  1  0.88340000  0.81444000  0.58079000  1.0
  H  H293  1  0.13889000  0.86707000  0.54613000  1.0
  H  H294  1  0.20732000  0.80181000  0.59042000  1.0
  H  H295  1  0.98193000  0.81285000  0.65572000  1.0
  H  H296  1  0.57484000  0.11202000  0.65214000  1.0
  H  H297  1  0.93627000  0.09049000  0.67769000  1.0
  H  H298  1  0.92318000  0.05233000  0.57812000  1.0
  H  H299  1  0.75977000  0.04502000  0.65108000  1.0
  H  H300  1  0.05969000  0.09582000  0.57404000  1.0
  H  H301  1  0.68505000  0.11157000  0.55268000  1.0
  H  H302  1  0.69363000  0.15509000  0.58604000  1.0
  H  H303  1  0.88654000  0.14947000  0.65627000  1.0
  H  H304  1  0.09864000  0.04446000  0.07091000  1.0
  H  H305  1  0.02559000  0.12368000  0.04972000  1.0
  H  H306  1  0.15187000  0.15106000  0.08433000  1.0
  H  H307  1  0.87812000  0.14358000  0.14208000  1.0
  H  H308  1  0.24229000  0.12791000  0.14110000  1.0
  H  H309  1  0.95305000  0.08441000  0.17691000  1.0
  H  H310  1  0.83821000  0.04877000  0.09146000  1.0
  H  H311  1  0.09993000  0.04129000  0.15136000  1.0
  H  H312  1  0.90399000  0.88836000  0.07558000  1.0
  H  H313  1  0.65941000  0.83041000  0.04579000  1.0
  H  H314  1  0.58928000  0.80011000  0.07193000  1.0
  H  H315  1  0.79922000  0.79217000  0.13954000  1.0
  H  H316  1  0.60713000  0.88178000  0.16299000  1.0
  H  H317  1  0.90221000  0.82628000  0.16024000  1.0
  H  H318  1  0.81688000  0.91425000  0.12377000  1.0
  H  H319  1  0.50881000  0.88721000  0.08041000  1.0
  H  H320  1  0.06871000  0.08386000  0.39974000  1.0
  H  H321  1  0.71973000  0.11946000  0.41632000  1.0
  H  H322  1  0.84117000  0.16845000  0.37769000  1.0
  H  H323  1  0.70042000  0.13528000  0.30939000  1.0
  H  H324  1  0.74955000  0.06146000  0.30654000  1.0
  H  H325  1  0.00896000  0.12449000  0.30598000  1.0
  H  H326  1  0.94202000  0.04124000  0.33504000  1.0
  H  H327  1  0.68900000  0.06176000  0.39381000  1.0
  H  H328  1  0.76595000  0.80449000  0.40247000  1.0
  H  H329  1  0.05425000  0.86013000  0.41542000  1.0
  H  H330  1  0.12009000  0.79691000  0.38317000  1.0
  H  H331  1  0.79837000  0.77930000  0.34000000  1.0
  H  H332  1  0.11259000  0.80733000  0.32436000  1.0
  H  H333  1  0.81565000  0.85097000  0.29137000  1.0
  H  H334  1  0.99344000  0.90337000  0.33798000  1.0
  H  H335  1  0.76019000  0.87850000  0.39858000  1.0
  H  H336  1  0.15852000  0.33879000  0.79224000  1.0
  H  H337  1  0.50037000  0.38066000  0.79113000  1.0
  H  H338  1  0.55288000  0.40492000  0.82918000  1.0
  H  H339  1  0.16529000  0.41746000  0.83965000  1.0
  H  H340  1  0.34007000  0.40959000  0.88595000  1.0
  H  H341  1  0.31744000  0.32801000  0.90322000  1.0
  H  H342  1  0.20758000  0.30186000  0.86931000  1.0
  H  H343  1  0.46093000  0.31140000  0.80799000  1.0
  H  H344  1  0.70071000  0.62974000  0.78514000  1.0
  H  H345  1  0.38566000  0.58052000  0.79624000  1.0
  H  H346  1  0.47629000  0.54015000  0.83548000  1.0
  H  H347  1  0.82097000  0.57295000  0.81151000  1.0
  H  H348  1  0.54380000  0.55000000  0.87800000  1.0
  H  H349  1  0.59311000  0.62930000  0.90137000  1.0
  H  H350  1  0.73959000  0.65264000  0.87623000  1.0
  H  H351  1  0.52250000  0.66377000  0.80977000  1.0
  H  H352  1  0.64488000  0.40124000  0.62391000  1.0
  H  H353  1  0.38677000  0.35131000  0.66168000  1.0
  H  H354  1  0.32273000  0.40702000  0.59550000  1.0
  H  H355  1  0.68712000  0.39578000  0.56626000  1.0
  H  H356  1  0.32061000  0.31337000  0.55713000  1.0
  H  H357  1  0.61580000  0.36447000  0.53600000  1.0
  H  H358  1  0.51756000  0.28794000  0.57595000  1.0
  H  H359  1  0.58729000  0.32060000  0.64876000  1.0
  H  H360  1  0.13179000  0.56271000  0.63253000  1.0
  H  H361  1  0.43897000  0.60355000  0.66461000  1.0
  H  H362  1  0.22621000  0.54056000  0.59973000  1.0
  H  H363  1  0.55039000  0.57629000  0.56895000  1.0
  H  H364  1  0.49769000  0.63933000  0.56332000  1.0
  H  H365  1  0.18944000  0.59131000  0.54271000  1.0
  H  H366  1  0.36896000  0.66963000  0.58898000  1.0
  H  H367  1  0.19601000  0.63539000  0.65346000  1.0
  H  H368  1  0.40008000  0.55299000  0.05252000  1.0
  H  H369  1  0.58843000  0.62454000  0.03599000  1.0
  H  H370  1  0.56736000  0.66698000  0.10427000  1.0
  H  H371  1  0.31308000  0.63307000  0.05178000  1.0
  H  H372  1  0.64770000  0.63862000  0.13501000  1.0
  H  H373  1  0.34310000  0.58838000  0.15233000  1.0
  H  H374  1  0.28309000  0.55268000  0.12261000  1.0
  H  H375  1  0.62896000  0.54271000  0.08457000  1.0
  H  H376  1  0.34282000  0.40492000  0.06071000  1.0
  H  H377  1  0.29303000  0.32502000  0.03935000  1.0
  H  H378  1  0.29584000  0.28685000  0.07888000  1.0
  H  H379  1  0.10859000  0.32024000  0.14228000  1.0
  H  H380  1  0.39046000  0.30977000  0.14661000  1.0
  H  H381  1  0.38845000  0.39318000  0.15051000  1.0
  H  H382  1  0.37167000  0.41922000  0.10114000  1.0
  H  H383  1  0.05993000  0.37957000  0.13287000  1.0
  H  H384  1  0.58996000  0.61891000  0.39285000  1.0
  H  H385  1  0.21610000  0.59460000  0.40556000  1.0
  H  H386  1  0.18567000  0.66196000  0.35452000  1.0
  H  H387  1  0.57765000  0.65196000  0.36149000  1.0
  H  H388  1  0.55474000  0.64641000  0.31119000  1.0
  H  H389  1  0.30266000  0.58731000  0.28628000  1.0
  H  H390  1  0.53546000  0.55682000  0.37942000  1.0
  H  H391  1  0.24359000  0.54848000  0.32559000  1.0
  H  H392  1  0.31468000  0.33397000  0.37668000  1.0
  H  H393  1  0.66253000  0.36140000  0.40443000  1.0
  H  H394  1  0.68874000  0.30441000  0.36975000  1.0
  H  H395  1  0.49189000  0.31204000  0.30019000  1.0
  H  H396  1  0.56057000  0.42153000  0.31553000  1.0
  H  H397  1  0.50712000  0.34976000  0.27563000  1.0
  H  H398  1  0.44810000  0.42309000  0.35655000  1.0
  H  H399  1  0.79301000  0.38720000  0.37554000  1.0
  N  N400  1  0.88171000  0.76869000  0.87792000  1.0
  N  N401  1  0.90516000  0.81193000  0.86972000  1.0
  N  N402  1  0.96347000  0.77788000  0.89504000  1.0
  N  N403  1  0.90748000  0.86244000  0.77320000  1.0
  N  N404  1  0.88010000  0.83664000  0.77316000  1.0
  N  N405  1  0.88105000  0.85097000  0.81430000  1.0
  N  N406  1  0.00551000  0.93354000  0.84725000  1.0
  N  N407  1  0.88492000  0.93836000  0.85219000  1.0
  N  N408  1  0.91576000  0.89397000  0.85313000  1.0
  N  N409  1  0.83347000  0.86202000  0.93854000  1.0
  N  N410  1  0.90444000  0.88333000  0.93454000  1.0
  N  N411  1  0.87261000  0.86322000  0.89630000  1.0
  N  N412  1  0.20880000  0.18269000  0.84504000  1.0
  N  N413  1  0.17993000  0.13879000  0.84507000  1.0
  N  N414  1  0.26978000  0.17337000  0.82470000  1.0
  N  N415  1  0.97800000  0.09274000  0.77676000  1.0
  N  N416  1  0.09899000  0.08917000  0.77142000  1.0
  N  N417  1  0.07929000  0.09338000  0.81446000  1.0
  N  N418  1  0.20645000  0.01568000  0.83715000  1.0
  N  N419  1  0.31816000  0.02590000  0.83133000  1.0
  N  N420  1  0.19119000  0.05928000  0.84403000  1.0
  N  N421  1  0.08685000  0.08916000  0.93737000  1.0
  N  N422  1  0.09814000  0.06373000  0.93090000  1.0
  N  N423  1  0.10562000  0.08806000  0.89456000  1.0
  N  N424  1  0.15348000  0.77546000  0.62130000  1.0
  N  N425  1  0.09053000  0.81751000  0.62091000  1.0
  N  N426  1  0.08200000  0.77854000  0.64198000  1.0
  N  N427  1  0.02564000  0.88867000  0.68984000  1.0
  N  N428  1  0.08976000  0.90829000  0.67885000  1.0
  N  N429  1  0.05317000  0.87710000  0.64876000  1.0
  N  N430  1  0.07591000  0.93769000  0.58159000  1.0
  N  N431  1  0.18071000  0.92925000  0.57040000  1.0
  N  N432  1  0.09852000  0.89547000  0.59331000  1.0
  N  N433  1  0.00653000  0.83917000  0.53041000  1.0
  N  N434  1  0.92565000  0.82225000  0.54097000  1.0
  N  N435  1  0.02518000  0.84429000  0.57292000  1.0
  N  N436  1  0.73756000  0.18431000  0.61531000  1.0
  N  N437  1  0.79905000  0.14245000  0.61938000  1.0
  N  N438  1  0.79755000  0.18286000  0.63764000  1.0
  N  N439  1  0.76138000  0.09859000  0.69800000  1.0
  N  N440  1  0.64710000  0.10516000  0.68985000  1.0
  N  N441  1  0.76931000  0.09937000  0.65500000  1.0
  N  N442  1  0.88830000  0.01849000  0.60228000  1.0
  N  N443  1  0.83694000  0.01560000  0.62535000  1.0
  N  N444  1  0.83221000  0.05906000  0.61462000  1.0
  N  N445  1  0.85692000  0.10660000  0.53048000  1.0
  N  N446  1  0.97504000  0.10165000  0.53725000  1.0
  N  N447  1  0.85884000  0.10375000  0.57346000  1.0
  N  N448  1  0.88501000  0.01585000  0.11649000  1.0
  N  N449  1  0.98188000  0.05505000  0.12013000  1.0
  N  N450  1  0.96841000  0.01301000  0.13530000  1.0
  N  N451  1  0.06717000  0.08835000  0.02720000  1.0
  N  N452  1  0.08955000  0.06324000  0.03375000  1.0
  N  N453  1  0.05746000  0.08662000  0.07004000  1.0
  N  N454  1  0.05393000  0.18037000  0.10752000  1.0
  N  N455  1  0.96777000  0.17827000  0.12591000  1.0
  N  N456  1  0.01079000  0.13723000  0.11117000  1.0
  N  N457  1  0.10190000  0.10960000  0.19210000  1.0
  N  N458  1  0.19314000  0.12334000  0.18078000  1.0
  N  N459  1  0.08591000  0.10183000  0.14986000  1.0
  N  N460  1  0.67228000  0.93501000  0.10203000  1.0
  N  N461  1  0.67031000  0.89071000  0.10558000  1.0
  N  N462  1  0.57506000  0.92640000  0.08834000  1.0
  N  N463  1  0.78602000  0.85812000  0.02762000  1.0
  N  N464  1  0.86307000  0.87666000  0.03671000  1.0
  N  N465  1  0.76794000  0.85675000  0.07036000  1.0
  N  N466  1  0.63885000  0.76618000  0.09465000  1.0
  N  N467  1  0.70519000  0.76315000  0.11601000  1.0
  N  N468  1  0.70422000  0.80691000  0.10566000  1.0
  N  N469  1  0.81461000  0.84703000  0.19184000  1.0
  N  N470  1  0.72144000  0.86463000  0.19315000  1.0
  N  N471  1  0.75177000  0.85393000  0.15141000  1.0
  N  N472  1  0.83665000  0.01752000  0.36213000  1.0
  N  N473  1  0.81952000  0.06169000  0.36194000  1.0
  N  N474  1  0.75629000  0.02361000  0.38075000  1.0
  N  N475  1  0.87222000  0.10568000  0.44077000  1.0
  N  N476  1  0.98297000  0.09465000  0.43557000  1.0
  N  N477  1  0.88679000  0.10339000  0.39792000  1.0
  N  N478  1  0.74452000  0.18592000  0.34499000  1.0
  N  N479  1  0.69990000  0.17564000  0.32333000  1.0
  N  N480  1  0.78725000  0.14259000  0.34630000  1.0
  N  N481  1  0.94179000  0.09819000  0.27597000  1.0
  N  N482  1  0.85892000  0.07842000  0.27589000  1.0
  N  N483  1  0.87324000  0.09428000  0.31648000  1.0
  N  N484  1  0.88116000  0.92533000  0.36567000  1.0
  N  N485  1  0.88986000  0.88115000  0.36666000  1.0
  N  N486  1  0.80707000  0.91773000  0.38486000  1.0
  N  N487  1  0.94778000  0.83483000  0.44130000  1.0
  N  N488  1  0.85576000  0.81738000  0.43747000  1.0
  N  N489  1  0.91697000  0.83318000  0.39892000  1.0
  N  N490  1  0.04914000  0.76009000  0.36801000  1.0
  N  N491  1  0.94730000  0.75393000  0.35442000  1.0
  N  N492  1  0.94477000  0.79811000  0.36246000  1.0
  N  N493  1  0.96373000  0.82686000  0.27493000  1.0
  N  N494  1  0.05691000  0.81291000  0.28525000  1.0
  N  N495  1  0.94853000  0.83198000  0.31756000  1.0
  N  N496  1  0.29630000  0.27345000  0.84362000  1.0
  N  N497  1  0.33724000  0.31678000  0.84057000  1.0
  N  N498  1  0.37577000  0.27625000  0.82412000  1.0
  N  N499  1  0.37904000  0.36669000  0.76063000  1.0
  N  N500  1  0.27164000  0.35311000  0.76061000  1.0
  N  N501  1  0.32758000  0.36071000  0.80185000  1.0
  N  N502  1  0.43918000  0.44060000  0.82883000  1.0
  N  N503  1  0.31695000  0.44498000  0.83228000  1.0
  N  N504  1  0.35297000  0.40091000  0.83627000  1.0
  N  N505  1  0.32378000  0.36327000  0.92733000  1.0
  N  N506  1  0.33113000  0.38902000  0.92191000  1.0
  N  N507  1  0.32718000  0.36654000  0.88446000  1.0
  N  N508  1  0.69188000  0.68791000  0.85450000  1.0
  N  N509  1  0.62203000  0.64791000  0.84263000  1.0
  N  N510  1  0.62420000  0.69182000  0.83340000  1.0
  N  N511  1  0.47059000  0.59702000  0.76181000  1.0
  N  N512  1  0.56999000  0.61259000  0.75799000  1.0
  N  N513  1  0.54895000  0.60588000  0.80050000  1.0
  N  N514  1  0.64223000  0.52271000  0.81843000  1.0
  N  N515  1  0.75177000  0.53277000  0.81090000  1.0
  N  N516  1  0.63521000  0.56609000  0.82741000  1.0
  N  N517  1  0.56374000  0.59281000  0.92262000  1.0
  N  N518  1  0.54658000  0.56775000  0.91537000  1.0
  N  N519  1  0.57223000  0.59269000  0.87979000  1.0
  N  N520  1  0.58481000  0.27066000  0.61143000  1.0
  N  N521  1  0.53180000  0.31323000  0.60945000  1.0
  N  N522  1  0.60811000  0.28068000  0.63451000  1.0
  N  N523  1  0.50579000  0.38362000  0.67527000  1.0
  N  N524  1  0.58768000  0.39928000  0.66331000  1.0
  N  N525  1  0.50089000  0.37248000  0.63365000  1.0
  N  N526  1  0.45141000  0.43352000  0.57592000  1.0
  N  N527  1  0.56732000  0.43043000  0.56676000  1.0
  N  N528  1  0.49935000  0.39108000  0.58182000  1.0
  N  N529  1  0.48839000  0.34031000  0.51363000  1.0
  N  N530  1  0.39465000  0.32412000  0.52000000  1.0
  N  N531  1  0.47565000  0.34137000  0.55654000  1.0
  N  N532  1  0.27623000  0.68687000  0.62199000  1.0
  N  N533  1  0.29948000  0.64325000  0.61851000  1.0
  N  N534  1  0.22056000  0.67640000  0.64246000  1.0
  N  N535  1  0.30157000  0.57637000  0.68102000  1.0
  N  N536  1  0.20456000  0.56335000  0.67096000  1.0
  N  N537  1  0.30146000  0.58557000  0.63916000  1.0
  N  N538  1  0.38545000  0.52458000  0.57904000  1.0
  N  N539  1  0.48863000  0.53546000  0.56917000  1.0
  N  N540  1  0.37517000  0.56750000  0.58848000  1.0
  N  N541  1  0.32516000  0.61364000  0.52006000  1.0
  N  N542  1  0.42329000  0.62859000  0.52651000  1.0
  N  N543  1  0.33070000  0.61454000  0.56285000  1.0
  N  N544  1  0.39071000  0.51762000  0.11266000  1.0
  N  N545  1  0.46134000  0.55816000  0.10296000  1.0
  N  N546  1  0.49978000  0.51409000  0.10065000  1.0
  N  N547  1  0.52853000  0.59164000  0.01190000  1.0
  N  N548  1  0.47029000  0.56887000  0.01700000  1.0
  N  N549  1  0.49665000  0.59091000  0.05423000  1.0
  N  N550  1  0.45523000  0.68397000  0.07378000  1.0
  N  N551  1  0.37460000  0.67354000  0.05710000  1.0
  N  N552  1  0.44902000  0.64039000  0.08189000  1.0
  N  N553  1  0.46057000  0.61358000  0.17617000  1.0
  N  N554  1  0.55644000  0.62965000  0.17087000  1.0
  N  N555  1  0.48849000  0.61172000  0.13376000  1.0
  N  N556  1  0.21037000  0.43331000  0.12246000  1.0
  N  N557  1  0.23018000  0.39038000  0.11260000  1.0
  N  N558  1  0.11160000  0.42110000  0.13277000  1.0
  N  N559  1  0.32311000  0.36103000  0.01704000  1.0
  N  N560  1  0.33854000  0.38629000  0.02378000  1.0
  N  N561  1  0.31672000  0.36220000  0.05997000  1.0
  N  N562  1  0.17188000  0.26972000  0.10771000  1.0
  N  N563  1  0.11211000  0.28004000  0.12777000  1.0
  N  N564  1  0.22175000  0.31273000  0.10848000  1.0
  N  N565  1  0.43220000  0.36302000  0.17841000  1.0
  N  N566  1  0.43340000  0.33664000  0.17757000  1.0
  N  N567  1  0.37051000  0.35192000  0.13868000  1.0
  N  N568  1  0.44137000  0.52207000  0.36386000  1.0
  N  N569  1  0.38476000  0.56295000  0.35216000  1.0
  N  N570  1  0.34928000  0.51913000  0.34682000  1.0
  N  N571  1  0.36536000  0.60692000  0.43146000  1.0
  N  N572  1  0.48323000  0.61471000  0.42755000  1.0
  N  N573  1  0.39509000  0.60678000  0.38906000  1.0
  N  N574  1  0.33575000  0.68896000  0.36561000  1.0
  N  N575  1  0.45939000  0.68590000  0.36801000  1.0
  N  N576  1  0.37723000  0.64667000  0.35599000  1.0
  N  N577  1  0.42143000  0.61521000  0.26550000  1.0
  N  N578  1  0.50145000  0.63389000  0.27321000  1.0
  N  N579  1  0.41680000  0.61483000  0.30829000  1.0
  N  N580  1  0.61144000  0.43752000  0.37683000  1.0
  N  N581  1  0.60537000  0.39607000  0.36162000  1.0
  N  N582  1  0.72070000  0.42645000  0.38313000  1.0
  N  N583  1  0.49862000  0.34563000  0.42362000  1.0
  N  N584  1  0.38896000  0.33651000  0.41509000  1.0
  N  N585  1  0.50088000  0.35111000  0.38096000  1.0
  N  N586  1  0.63912000  0.27575000  0.34020000  1.0
  N  N587  1  0.57738000  0.27798000  0.31814000  1.0
  N  N588  1  0.58683000  0.31846000  0.33635000  1.0
  N  N589  1  0.51108000  0.39093000  0.26330000  1.0
  N  N590  1  0.52708000  0.41357000  0.27597000  1.0
  N  N591  1  0.53591000  0.38018000  0.30477000  1.0
  N  N592  1  0.83054000  0.70167000  0.88807000  1.0
  N  N593  1  0.88476000  0.72452000  0.89453000  1.0
  N  N594  1  0.14470000  0.21960000  0.87159000  1.0
  N  N595  1  0.16946000  0.24565000  0.87112000  1.0
  N  N596  1  0.28234000  0.74889000  0.59353000  1.0
  N  N597  1  0.31859000  0.72354000  0.59386000  1.0
  N  N598  1  0.58374000  0.23402000  0.58184000  1.0
  N  N599  1  0.62708000  0.20916000  0.58302000  1.0
  N  N600  1  0.22888000  0.23207000  0.08162000  1.0
  N  N601  1  0.19551000  0.20648000  0.08166000  1.0
  N  N602  1  0.44392000  0.72785000  0.05642000  1.0
  N  N603  1  0.49730000  0.75104000  0.06204000  1.0
  N  N604  1  0.74843000  0.24916000  0.37159000  1.0
  N  N605  1  0.77857000  0.22341000  0.37297000  1.0
  N  N606  1  0.33983000  0.73309000  0.38182000  1.0
  N  N607  1  0.25821000  0.75299000  0.38305000  1.0
  N  N608  1  0.01575000  0.91001000  0.73062000  1.0
  N  N609  1  0.98139000  0.90275000  0.75409000  1.0
  N  N610  1  0.70275000  0.10114000  0.74217000  1.0
  N  N611  1  0.76304000  0.09950000  0.76447000  1.0
  N  N612  1  0.14722000  0.12799000  0.23324000  1.0
  N  N613  1  0.10145000  0.12516000  0.25678000  1.0
  N  N614  1  0.01941000  0.81413000  0.23246000  1.0
  N  N615  1  0.97771000  0.81970000  0.20909000  1.0
  N  N616  1  0.57218000  0.39807000  0.71663000  1.0
  N  N617  1  0.53887000  0.39292000  0.74066000  1.0
  N  N618  1  0.30026000  0.56979000  0.74706000  1.0
  N  N619  1  0.25361000  0.56378000  0.72412000  1.0
  N  N620  1  0.32771000  0.59053000  0.20634000  1.0
  N  N621  1  0.31727000  0.59080000  0.23185000  1.0
  N  N622  1  0.48151000  0.41276000  0.22314000  1.0
  N  N623  1  0.45912000  0.40502000  0.19922000  1.0
  N  N624  1  0.70246000  0.83241000  0.99246000  1.0
  N  N625  1  0.71685000  0.83335000  0.96703000  1.0
  N  N626  1  0.05787000  0.12318000  0.96956000  1.0
  N  N627  1  0.05126000  0.12291000  0.99515000  1.0
  N  N628  1  0.10235000  0.86086000  0.49423000  1.0
  N  N629  1  0.08554000  0.85972000  0.46893000  1.0
  N  N630  1  0.70494000  0.11666000  0.49724000  1.0
  N  N631  1  0.71016000  0.11686000  0.47160000  1.0
  N  N632  1  0.30728000  0.32721000  0.98419000  1.0
  N  N633  1  0.30807000  0.32783000  0.95855000  1.0
  N  N634  1  0.60033000  0.62538000  0.95573000  1.0
  N  N635  1  0.59342000  0.62485000  0.98129000  1.0
  N  N636  1  0.63084000  0.35952000  0.48297000  1.0
  N  N637  1  0.63500000  0.36056000  0.45746000  1.0
  N  N638  1  0.19235000  0.59503000  0.48687000  1.0
  N  N639  1  0.20279000  0.59356000  0.46134000  1.0
  N  N640  1  0.26987000  0.97040000  0.83194000  1.0
  N  N641  1  0.21350000  0.94701000  0.83516000  1.0
  N  N642  1  0.02398000  0.00393000  0.56859000  1.0
  N  N643  1  0.07960000  0.98098000  0.56301000  1.0
  N  N644  1  0.70956000  0.00226000  0.09111000  1.0
  N  N645  1  0.64852000  0.97956000  0.08745000  1.0
  N  N646  1  0.96963000  0.95941000  0.33875000  1.0
  N  N647  1  0.95651000  0.98577000  0.33770000  1.0
  N  N648  1  0.70259000  0.47737000  0.81254000  1.0
  N  N649  1  0.64612000  0.45405000  0.81606000  1.0
  N  N650  1  0.27880000  0.46070000  0.58961000  1.0
  N  N651  1  0.25984000  0.48685000  0.59053000  1.0
  N  N652  1  0.15137000  0.47727000  0.13545000  1.0
  N  N653  1  0.20238000  0.50129000  0.13265000  1.0
  N  N654  1  0.66164000  0.48100000  0.39249000  1.0
  N  N655  1  0.61304000  0.50512000  0.38887000  1.0
  N  N656  1  0.45230000  0.83144000  0.83415000  1.0
  N  N657  1  0.32742000  0.82958000  0.83503000  1.0
  N  N658  1  0.56887000  0.12992000  0.86892000  1.0
  N  N659  1  0.69346000  0.12909000  0.86622000  1.0
  N  N660  1  0.50473000  0.85113000  0.63853000  1.0
  N  N661  1  0.62771000  0.85589000  0.63931000  1.0
  N  N662  1  0.25480000  0.12324000  0.60772000  1.0
  N  N663  1  0.37543000  0.12079000  0.60133000  1.0
  N  N664  1  0.46948000  0.10410000  0.08315000  1.0
  N  N665  1  0.59234000  0.10848000  0.08557000  1.0
  N  N666  1  0.15969000  0.84346000  0.13687000  1.0
  N  N667  1  0.28454000  0.84476000  0.13622000  1.0
  N  N668  1  0.28364000  0.13086000  0.37025000  1.0
  N  N669  1  0.40874000  0.12978000  0.37117000  1.0
  N  N670  1  0.33150000  0.87319000  0.32786000  1.0
  N  N671  1  0.45196000  0.87514000  0.32107000  1.0
  N  N672  1  0.89655000  0.33333333  0.84073000  1.0
  N  N673  1  0.77167000  0.33238000  0.84154000  1.0
  N  N674  1  0.02744000  0.63442000  0.84537000  1.0
  N  N675  1  0.15227000  0.63364000  0.84388000  1.0
  N  N676  1  0.05454000  0.34248000  0.62313000  1.0
  N  N677  1  0.93080000  0.33877000  0.62207000  1.0
  N  N678  1  0.85239000  0.64884000  0.58845000  1.0
  N  N679  1  0.73389000  0.64438000  0.59539000  1.0
  N  N680  1  0.03791000  0.57619000  0.10185000  1.0
  N  N681  1  0.91442000  0.57631000  0.09807000  1.0
  N  N682  1  0.85326000  0.32349000  0.07958000  1.0
  N  N683  1  0.72864000  0.32326000  0.08241000  1.0
  N  N684  1  0.97369000  0.57777000  0.31568000  1.0
  N  N685  1  0.85347000  0.57235000  0.31077000  1.0
  N  N686  1  0.11976000  0.33430000  0.32586000  1.0
  N  N687  1  0.99471000  0.33366000  0.32467000  1.0
  O  O688  1  0.70654000  0.84408000  0.84794000  1.0
  O  O689  1  0.63216000  0.87177000  0.87934000  1.0
  O  O690  1  0.07088000  0.84249000  0.84783000  1.0
  O  O691  1  0.14062000  0.86113000  0.88518000  1.0
  O  O692  1  0.31640000  0.10941000  0.86306000  1.0
  O  O693  1  0.37307000  0.07317000  0.88720000  1.0
  O  O694  1  0.94876000  0.10995000  0.86199000  1.0
  O  O695  1  0.87679000  0.06749000  0.86811000  1.0
  O  O696  1  0.25179000  0.85600000  0.62043000  1.0
  O  O697  1  0.31992000  0.84491000  0.58009000  1.0
  O  O698  1  0.88265000  0.85718000  0.62165000  1.0
  O  O699  1  0.81496000  0.87656000  0.58432000  1.0
  O  O700  1  0.62973000  0.10384000  0.60335000  1.0
  O  O701  1  0.56642000  0.06329000  0.61868000  1.0
  O  O702  1  0.00279000  0.10965000  0.61903000  1.0
  O  O703  1  0.06675000  0.06971000  0.63587000  1.0
  O  O704  1  0.84726000  0.10172000  0.10167000  1.0
  O  O705  1  0.77869000  0.08748000  0.14094000  1.0
  O  O706  1  0.21527000  0.09666000  0.09939000  1.0
  O  O707  1  0.28152000  0.06601000  0.12889000  1.0
  O  O708  1  0.91056000  0.84963000  0.11707000  1.0
  O  O709  1  0.95878000  0.81943000  0.08556000  1.0
  O  O710  1  0.53765000  0.84415000  0.11885000  1.0
  O  O711  1  0.46722000  0.83967000  0.07748000  1.0
  O  O712  1  0.02553000  0.11699000  0.35941000  1.0
  O  O713  1  0.09504000  0.07768000  0.34265000  1.0
  O  O714  1  0.66226000  0.11109000  0.36534000  1.0
  O  O715  1  0.59252000  0.08019000  0.33653000  1.0
  O  O716  1  0.71936000  0.84114000  0.35188000  1.0
  O  O717  1  0.72118000  0.87761000  0.32550000  1.0
  O  O718  1  0.10167000  0.85387000  0.35096000  1.0
  O  O719  1  0.21805000  0.83891000  0.38533000  1.0
  O  O720  1  0.14612000  0.35193000  0.84412000  1.0
  O  O721  1  0.08497000  0.38433000  0.87259000  1.0
  O  O722  1  0.51968000  0.34981000  0.84540000  1.0
  O  O723  1  0.57829000  0.38133000  0.87494000  1.0
  O  O724  1  0.77752000  0.61411000  0.84180000  1.0
  O  O725  1  0.83011000  0.58075000  0.86983000  1.0
  O  O726  1  0.40554000  0.61533000  0.84441000  1.0
  O  O727  1  0.33663000  0.57361000  0.85512000  1.0
  O  O728  1  0.68428000  0.35137000  0.60224000  1.0
  O  O729  1  0.74205000  0.32869000  0.56587000  1.0
  O  O730  1  0.31255000  0.34630000  0.60634000  1.0
  O  O731  1  0.24041000  0.36555000  0.56926000  1.0
  O  O732  1  0.12234000  0.60487000  0.60057000  1.0
  O  O733  1  0.11335000  0.64401000  0.57825000  1.0
  O  O734  1  0.50546000  0.61859000  0.60705000  1.0
  O  O735  1  0.61204000  0.58167000  0.62147000  1.0
  O  O736  1  0.28906000  0.59400000  0.09457000  1.0
  O  O737  1  0.23435000  0.63378000  0.11318000  1.0
  O  O738  1  0.66306000  0.59420000  0.09692000  1.0
  O  O739  1  0.72963000  0.63482000  0.08215000  1.0
  O  O740  1  0.47005000  0.34056000  0.08970000  1.0
  O  O741  1  0.54254000  0.38302000  0.09505000  1.0
  O  O742  1  0.10445000  0.34317000  0.09007000  1.0
  O  O743  1  0.04715000  0.38310000  0.07220000  1.0
  O  O744  1  0.58381000  0.60117000  0.34506000  1.0
  O  O745  1  0.58388000  0.56926000  0.31368000  1.0
  O  O746  1  0.20041000  0.59842000  0.33712000  1.0
  O  O747  1  0.08788000  0.61745000  0.36999000  1.0
  O  O748  1  0.37197000  0.35258000  0.33198000  1.0
  O  O749  1  0.30164000  0.39567000  0.33184000  1.0
  O  O750  1  0.74199000  0.35144000  0.33443000  1.0
  O  O751  1  0.79577000  0.39258000  0.31884000  1.0
  O  O752  1  0.76552000  0.73230000  0.86036000  1.0
  O  O753  1  0.27196000  0.22713000  0.83874000  1.0
  O  O754  1  0.20258000  0.73045000  0.62857000  1.0
  O  O755  1  0.67255000  0.22871000  0.61996000  1.0
  O  O756  1  0.08934000  0.22644000  0.11274000  1.0
  O  O757  1  0.56804000  0.72140000  0.09012000  1.0
  O  O758  1  0.67722000  0.22971000  0.33635000  1.0
  O  O759  1  0.15990000  0.71878000  0.36497000  1.0
  O  O760  1  0.94923000  0.86819000  0.72837000  1.0
  O  O761  1  0.90371000  0.09327000  0.73346000  1.0
  O  O762  1  0.99450000  0.09792000  0.23120000  1.0
  O  O763  1  0.85953000  0.84229000  0.23675000  1.0
  O  O764  1  0.41226000  0.36966000  0.71515000  1.0
  O  O765  1  0.41476000  0.59113000  0.71795000  1.0
  O  O766  1  0.46417000  0.62009000  0.22117000  1.0
  O  O767  1  0.47630000  0.36861000  0.22316000  1.0
  O  O768  1  0.82902000  0.86623000  0.98373000  1.0
  O  O769  1  0.08079000  0.08142000  0.98224000  1.0
  O  O770  1  0.95244000  0.83118000  0.48677000  1.0
  O  O771  1  0.89739000  0.10449000  0.48589000  1.0
  O  O772  1  0.32756000  0.36927000  0.97234000  1.0
  O  O773  1  0.53853000  0.58498000  0.96706000  1.0
  O  O774  1  0.46344000  0.33802000  0.46822000  1.0
  O  O775  1  0.37314000  0.61379000  0.47604000  1.0
  O  O776  1  0.07225000  0.97841000  0.84342000  1.0
  O  O777  1  0.95372000  0.97394000  0.59632000  1.0
  O  O778  1  0.80294000  0.97150000  0.11512000  1.0
  O  O779  1  0.83660000  0.97116000  0.36949000  1.0
  O  O780  1  0.50632000  0.48558000  0.82486000  1.0
  O  O781  1  0.44461000  0.48012000  0.57182000  1.0
  O  O782  1  0.33201000  0.47215000  0.11468000  1.0
  O  O783  1  0.49152000  0.47634000  0.36824000  1.0
  O  O784  1  0.38759000  0.85447000  0.86773000  1.0
  O  O785  1  0.62946000  0.08859000  0.87619000  1.0
  O  O786  1  0.56766000  0.85884000  0.59880000  1.0
  O  O787  1  0.31666000  0.08320000  0.61977000  1.0
  O  O788  1  0.53079000  0.08552000  0.11948000  1.0
  O  O789  1  0.21961000  0.83306000  0.09753000  1.0
  O  O790  1  0.34348000  0.09516000  0.34875000  1.0
  O  O791  1  0.44368000  0.85024000  0.35590000  1.0
  O  O792  1  0.83206000  0.36690000  0.86478000  1.0
  O  O793  1  0.08807000  0.59447000  0.85808000  1.0
  O  O794  1  0.99682000  0.34608000  0.58250000  1.0
  O  O795  1  0.84450000  0.60862000  0.60550000  1.0
  O  O796  1  0.97860000  0.61821000  0.09798000  1.0
  O  O797  1  0.78979000  0.36525000  0.08151000  1.0
  O  O798  1  0.85871000  0.59912000  0.34439000  1.0
  O  O799  1  0.05291000  0.37585000  0.32376000  1.0
