# generated using pymatgen
data_Cu4H45WC45S4(N6Cl)2
_symmetry_space_group_name_H-M   'P 1'
_cell_length_a   33.65150000
_cell_length_b   35.44080000
_cell_length_c   51.18460000
_cell_angle_alpha   90.00000000
_cell_angle_beta   86.36800000
_cell_angle_gamma   90.00000000
_symmetry_Int_Tables_number   1
_chemical_formula_structural   Cu4H45WC45S4(N6Cl)2
_chemical_formula_sum   'Cu32 H360 W8 C360 S32 N96 Cl16'
_cell_volume   60921.99292119
_cell_formula_units_Z   8
loop_
 _symmetry_equiv_pos_site_id
 _symmetry_equiv_pos_as_xyz
  1  'x, y, z'
loop_
 _atom_site_type_symbol
 _atom_site_label
 _atom_site_symmetry_multiplicity
 _atom_site_fract_x
 _atom_site_fract_y
 _atom_site_fract_z
 _atom_site_occupancy
  Cu  Cu0  1  0.65223000  0.52207000  0.79911000  1.0
  Cu  Cu1  1  0.60964000  0.62059000  0.80100000  1.0
  Cu  Cu2  1  0.70744000  0.65852000  0.81870000  1.0
  Cu  Cu3  1  0.74038000  0.55857000  0.83237000  1.0
  Cu  Cu4  1  0.81271000  0.52632000  0.16770000  1.0
  Cu  Cu5  1  0.85671000  0.62420000  0.16533000  1.0
  Cu  Cu6  1  0.76104000  0.66286000  0.14472000  1.0
  Cu  Cu7  1  0.72621000  0.56269000  0.13280000  1.0
  Cu  Cu8  1  0.29554000  0.44256000  0.17547000  1.0
  Cu  Cu9  1  0.35276000  0.35426000  0.18127000  1.0
  Cu  Cu10  1  0.26919000  0.29848000  0.15281000  1.0
  Cu  Cu11  1  0.21979000  0.39145000  0.13835000  1.0
  Cu  Cu12  1  0.17003000  0.44020000  0.78676000  1.0
  Cu  Cu13  1  0.11380000  0.35161000  0.78592000  1.0
  Cu  Cu14  1  0.19202000  0.30193000  0.82385000  1.0
  Cu  Cu15  1  0.23806000  0.39901000  0.83422000  1.0
  Cu  Cu16  1  0.66062000  0.02657000  0.29653000  1.0
  Cu  Cu17  1  0.61726000  0.12451000  0.29998000  1.0
  Cu  Cu18  1  0.71410000  0.16245000  0.31935000  1.0
  Cu  Cu19  1  0.74779000  0.06201000  0.33122000  1.0
  Cu  Cu20  1  0.80848000  0.02234000  0.66770000  1.0
  Cu  Cu21  1  0.85148000  0.12062000  0.66709000  1.0
  Cu  Cu22  1  0.75605000  0.15904000  0.64588000  1.0
  Cu  Cu23  1  0.72322000  0.05913000  0.63167000  1.0
  Cu  Cu24  1  0.29179000  0.94431000  0.66962000  1.0
  Cu  Cu25  1  0.35120000  0.85666000  0.67341000  1.0
  Cu  Cu26  1  0.26958000  0.79965000  0.64765000  1.0
  Cu  Cu27  1  0.21424000  0.89138000  0.63485000  1.0
  Cu  Cu28  1  0.17715000  0.94315000  0.28805000  1.0
  Cu  Cu29  1  0.12053000  0.85448000  0.28739000  1.0
  Cu  Cu30  1  0.20003000  0.80431000  0.32412000  1.0
  Cu  Cu31  1  0.24761000  0.90074000  0.33323000  1.0
  H  H32  1  0.53016000  0.54339000  0.86787000  1.0
  H  H33  1  0.82122000  0.48793000  0.76104000  1.0
  H  H34  1  0.78423000  0.54260000  0.77993000  1.0
  H  H35  1  0.75955000  0.48390000  0.85104000  1.0
  H  H36  1  0.79546000  0.42775000  0.83344000  1.0
  H  H37  1  0.57201000  0.68211000  0.71772000  1.0
  H  H38  1  0.59343000  0.62959000  0.74510000  1.0
  H  H39  1  0.60633000  0.70380000  0.80873000  1.0
  H  H40  1  0.58599000  0.75781000  0.78251000  1.0
  H  H41  1  0.68989000  0.44739000  0.80793000  1.0
  H  H42  1  0.73138000  0.40252000  0.78115000  1.0
  H  H43  1  0.69118000  0.52465000  0.74492000  1.0
  H  H44  1  0.73188000  0.48150000  0.71694000  1.0
  H  H45  1  0.69755000  0.69641000  0.72431000  1.0
  H  H46  1  0.52444000  0.62592000  0.79051000  1.0
  H  H47  1  0.59113000  0.57140000  0.84670000  1.0
  H  H48  1  0.69490000  0.74143000  0.81557000  1.0
  H  H49  1  0.70656000  0.65237000  0.76073000  1.0
  H  H50  1  0.46183000  0.59991000  0.81086000  1.0
  H  H51  1  0.83129000  0.56848000  0.90676000  1.0
  H  H52  1  0.71544000  0.61955000  0.92091000  1.0
  H  H53  1  0.81253000  0.55029000  0.86262000  1.0
  H  H54  1  0.69896000  0.59986000  0.87656000  1.0
  H  H55  1  0.68480000  0.78739000  0.78032000  1.0
  H  H56  1  0.94018000  0.54541000  0.10133000  1.0
  H  H57  1  0.64006000  0.49898000  0.20476000  1.0
  H  H58  1  0.67902000  0.55147000  0.18462000  1.0
  H  H59  1  0.70740000  0.48636000  0.11675000  1.0
  H  H60  1  0.66951000  0.43220000  0.13571000  1.0
  H  H61  1  0.89158000  0.68803000  0.24832000  1.0
  H  H62  1  0.86893000  0.63524000  0.22168000  1.0
  H  H63  1  0.86327000  0.70678000  0.15588000  1.0
  H  H64  1  0.88499000  0.76108000  0.18130000  1.0
  H  H65  1  0.77581000  0.45136000  0.15931000  1.0
  H  H66  1  0.73277000  0.40740000  0.18582000  1.0
  H  H67  1  0.77048000  0.53101000  0.22094000  1.0
  H  H68  1  0.72817000  0.48880000  0.24866000  1.0
  H  H69  1  0.76812000  0.70401000  0.23867000  1.0
  H  H70  1  0.94043000  0.62807000  0.17893000  1.0
  H  H71  1  0.87809000  0.57433000  0.12019000  1.0
  H  H72  1  0.77577000  0.74549000  0.14652000  1.0
  H  H73  1  0.75904000  0.65889000  0.20289000  1.0
  H  H74  1  0.00404000  0.60098000  0.16101000  1.0
  H  H75  1  0.63776000  0.56842000  0.05693000  1.0
  H  H76  1  0.75353000  0.61979000  0.04320000  1.0
  H  H77  1  0.65518000  0.55251000  0.10177000  1.0
  H  H78  1  0.76871000  0.60234000  0.08825000  1.0
  H  H79  1  0.78598000  0.79247000  0.18113000  1.0
  H  H80  1  0.44428000  0.42336000  0.11565000  1.0
  H  H81  1  0.10576000  0.43244000  0.20084000  1.0
  H  H82  1  0.15229000  0.38678000  0.17940000  1.0
  H  H83  1  0.20426000  0.47244000  0.13084000  1.0
  H  H84  1  0.15880000  0.51995000  0.15146000  1.0
  H  H85  1  0.37463000  0.29924000  0.26987000  1.0
  H  H86  1  0.34873000  0.34573000  0.23947000  1.0
  H  H87  1  0.38487000  0.27725000  0.17456000  1.0
  H  H88  1  0.41160000  0.22946000  0.20365000  1.0
  H  H89  1  0.27273000  0.52284000  0.17166000  1.0
  H  H90  1  0.22661000  0.56601000  0.19597000  1.0
  H  H91  1  0.22830000  0.42990000  0.21622000  1.0
  H  H92  1  0.18170000  0.47117000  0.24195000  1.0
  H  H93  1  0.27387000  0.25421000  0.24646000  1.0
  H  H94  1  0.41462000  0.39313000  0.20897000  1.0
  H  H95  1  0.38798000  0.38226000  0.12967000  1.0
  H  H96  1  0.26162000  0.21544000  0.15481000  1.0
  H  H97  1  0.27931000  0.30078000  0.21053000  1.0
  H  H98  1  0.47142000  0.43515000  0.19655000  1.0
  H  H99  1  0.13694000  0.35502000  0.06350000  1.0
  H  H100  1  0.26342000  0.33646000  0.05032000  1.0
  H  H101  1  0.14895000  0.38094000  0.10711000  1.0
  H  H102  1  0.27279000  0.36314000  0.09398000  1.0
  H  H103  1  0.25478000  0.16721000  0.18958000  1.0
  H  H104  1  0.02087000  0.43602000  0.84022000  1.0
  H  H105  1  0.34191000  0.44116000  0.76462000  1.0
  H  H106  1  0.29198000  0.39771000  0.78502000  1.0
  H  H107  1  0.26864000  0.47293000  0.84829000  1.0
  H  H108  1  0.31777000  0.51833000  0.82893000  1.0
  H  H109  1  0.09682000  0.28391000  0.70116000  1.0
  H  H110  1  0.12329000  0.33350000  0.72894000  1.0
  H  H111  1  0.07896000  0.27665000  0.79736000  1.0
  H  H112  1  0.05150000  0.22600000  0.77097000  1.0
  H  H113  1  0.21250000  0.50936000  0.80148000  1.0
  H  H114  1  0.26177000  0.55251000  0.77957000  1.0
  H  H115  1  0.22125000  0.43526000  0.73664000  1.0
  H  H116  1  0.27010000  0.47688000  0.71337000  1.0
  H  H117  1  0.20187000  0.24925000  0.73215000  1.0
  H  H118  1  0.05379000  0.38264000  0.75244000  1.0
  H  H119  1  0.07674000  0.39181000  0.83249000  1.0
  H  H120  1  0.20366000  0.21862000  0.82606000  1.0
  H  H121  1  0.18868000  0.29810000  0.76596000  1.0
  H  H122  1  0.99739000  0.42727000  0.75849000  1.0
  H  H123  1  0.29885000  0.41591000  0.92036000  1.0
  H  H124  1  0.17477000  0.38429000  0.92530000  1.0
  H  H125  1  0.29989000  0.40838000  0.87241000  1.0
  H  H126  1  0.17841000  0.37722000  0.87719000  1.0
  H  H127  1  0.21793000  0.16814000  0.79347000  1.0
  H  H128  1  0.53696000  0.04503000  0.36508000  1.0
  H  H129  1  0.83120000  0.99598000  0.25895000  1.0
  H  H130  1  0.79380000  0.04949000  0.27910000  1.0
  H  H131  1  0.76586000  0.98586000  0.34771000  1.0
  H  H132  1  0.80213000  0.93076000  0.32877000  1.0
  H  H133  1  0.57721000  0.18910000  0.21854000  1.0
  H  H134  1  0.60081000  0.13584000  0.24436000  1.0
  H  H135  1  0.61350000  0.20729000  0.30949000  1.0
  H  H136  1  0.59114000  0.26203000  0.28485000  1.0
  H  H137  1  0.69681000  0.95105000  0.30408000  1.0
  H  H138  1  0.73883000  0.90707000  0.27692000  1.0
  H  H139  1  0.70249000  0.03195000  0.24324000  1.0
  H  H140  1  0.74377000  0.98974000  0.21486000  1.0
  H  H141  1  0.70459000  0.20325000  0.22555000  1.0
  H  H142  1  0.53260000  0.12831000  0.28801000  1.0
  H  H143  1  0.59808000  0.07425000  0.34505000  1.0
  H  H144  1  0.70030000  0.24528000  0.31754000  1.0
  H  H145  1  0.71443000  0.15827000  0.26128000  1.0
  H  H146  1  0.46986000  0.10099000  0.30717000  1.0
  H  H147  1  0.83592000  0.06697000  0.40736000  1.0
  H  H148  1  0.72073000  0.11967000  0.42059000  1.0
  H  H149  1  0.81866000  0.05114000  0.36246000  1.0
  H  H150  1  0.70571000  0.10227000  0.37552000  1.0
  H  H151  1  0.68934000  0.29215000  0.28299000  1.0
  H  H152  1  0.93690000  0.04332000  0.60330000  1.0
  H  H153  1  0.63524000  0.99124000  0.70072000  1.0
  H  H154  1  0.67454000  0.04496000  0.68261000  1.0
  H  H155  1  0.70592000  0.98373000  0.61345000  1.0
  H  H156  1  0.66786000  0.92842000  0.63036000  1.0
  H  H157  1  0.88695000  0.18227000  0.75058000  1.0
  H  H158  1  0.86418000  0.13010000  0.72344000  1.0
  H  H159  1  0.85569000  0.20364000  0.65895000  1.0
  H  H160  1  0.87731000  0.25735000  0.68491000  1.0
  H  H161  1  0.77187000  0.94771000  0.65749000  1.0
  H  H162  1  0.72799000  0.90291000  0.68266000  1.0
  H  H163  1  0.76516000  0.02484000  0.72064000  1.0
  H  H164  1  0.72192000  0.98178000  0.74704000  1.0
  H  H165  1  0.76203000  0.19695000  0.74052000  1.0
  H  H166  1  0.93481000  0.12499000  0.68148000  1.0
  H  H167  1  0.87428000  0.07174000  0.62170000  1.0
  H  H168  1  0.76836000  0.24198000  0.64918000  1.0
  H  H169  1  0.75383000  0.15303000  0.70393000  1.0
  H  H170  1  0.99893000  0.09844000  0.66404000  1.0
  H  H171  1  0.63740000  0.06863000  0.55464000  1.0
  H  H172  1  0.75390000  0.11932000  0.54339000  1.0
  H  H173  1  0.65330000  0.05070000  0.59942000  1.0
  H  H174  1  0.76751000  0.09991000  0.58833000  1.0
  H  H175  1  0.77755000  0.28786000  0.68465000  1.0
  H  H176  1  0.44400000  0.92582000  0.60851000  1.0
  H  H177  1  0.10272000  0.92637000  0.70106000  1.0
  H  H178  1  0.14917000  0.88293000  0.67719000  1.0
  H  H179  1  0.19617000  0.97239000  0.63000000  1.0
  H  H180  1  0.15089000  0.01772000  0.65316000  1.0
  H  H181  1  0.36705000  0.79272000  0.76027000  1.0
  H  H182  1  0.34256000  0.84194000  0.73134000  1.0
  H  H183  1  0.38806000  0.78247000  0.66432000  1.0
  H  H184  1  0.41346000  0.73203000  0.69190000  1.0
  H  H185  1  0.26811000  0.02456000  0.66822000  1.0
  H  H186  1  0.22305000  0.06626000  0.69461000  1.0
  H  H187  1  0.22684000  0.92927000  0.71152000  1.0
  H  H188  1  0.18135000  0.96900000  0.73930000  1.0
  H  H189  1  0.26792000  0.75485000  0.74156000  1.0
  H  H190  1  0.41098000  0.89704000  0.70171000  1.0
  H  H191  1  0.38761000  0.88453000  0.62194000  1.0
  H  H192  1  0.30545000  0.72363000  0.64939000  1.0
  H  H193  1  0.25540000  0.79949000  0.70606000  1.0
  H  H194  1  0.46780000  0.93930000  0.68989000  1.0
  H  H195  1  0.12862000  0.86703000  0.55916000  1.0
  H  H196  1  0.25199000  0.83437000  0.54655000  1.0
  H  H197  1  0.14288000  0.88918000  0.60336000  1.0
  H  H198  1  0.26372000  0.85788000  0.59076000  1.0
  H  H199  1  0.31960000  0.67747000  0.68383000  1.0
  H  H200  1  0.02722000  0.93636000  0.34352000  1.0
  H  H201  1  0.34855000  0.94215000  0.26158000  1.0
  H  H202  1  0.29966000  0.89877000  0.28317000  1.0
  H  H203  1  0.27838000  0.97492000  0.34612000  1.0
  H  H204  1  0.32630000  0.02037000  0.32552000  1.0
  H  H205  1  0.10350000  0.78589000  0.20283000  1.0
  H  H206  1  0.13053000  0.83544000  0.23039000  1.0
  H  H207  1  0.08378000  0.78065000  0.29902000  1.0
  H  H208  1  0.05567000  0.73007000  0.27286000  1.0
  H  H209  1  0.21911000  0.01336000  0.30165000  1.0
  H  H210  1  0.26786000  0.05624000  0.27918000  1.0
  H  H211  1  0.22784000  0.93767000  0.23771000  1.0
  H  H212  1  0.27610000  0.97909000  0.21376000  1.0
  H  H213  1  0.20803000  0.74925000  0.23301000  1.0
  H  H214  1  0.06075000  0.88719000  0.25463000  1.0
  H  H215  1  0.08333000  0.89269000  0.33489000  1.0
  H  H216  1  0.21022000  0.72110000  0.32726000  1.0
  H  H217  1  0.19551000  0.79911000  0.26621000  1.0
  H  H218  1  0.00418000  0.93145000  0.26157000  1.0
  H  H219  1  0.31825000  0.91019000  0.41631000  1.0
  H  H220  1  0.19243000  0.88641000  0.42659000  1.0
  H  H221  1  0.31347000  0.90563000  0.36855000  1.0
  H  H222  1  0.19036000  0.88186000  0.37853000  1.0
  H  H223  1  0.22371000  0.66966000  0.29532000  1.0
  H  H224  1  0.56082000  0.74973000  0.71191000  1.0
  H  H225  1  0.51950000  0.79836000  0.77459000  1.0
  H  H226  1  0.44174000  0.78405000  0.78187000  1.0
  H  H227  1  0.48841000  0.71838000  0.71859000  1.0
  H  H228  1  0.39566000  0.72874000  0.76467000  1.0
  H  H229  1  0.41507000  0.70310000  0.73586000  1.0
  H  H230  1  0.57433000  0.78250000  0.73678000  1.0
  H  H231  1  0.90742000  0.75487000  0.25260000  1.0
  H  H232  1  0.95212000  0.80035000  0.18979000  1.0
  H  H233  1  0.02889000  0.78185000  0.18278000  1.0
  H  H234  1  0.97802000  0.71912000  0.24628000  1.0
  H  H235  1  0.07090000  0.72329000  0.20010000  1.0
  H  H236  1  0.05036000  0.69998000  0.22960000  1.0
  H  H237  1  0.89588000  0.78726000  0.22700000  1.0
  H  H238  1  0.41866000  0.20607000  0.24874000  1.0
  H  H239  1  0.44917000  0.29165000  0.28923000  1.0
  H  H240  1  0.52587000  0.30690000  0.27750000  1.0
  H  H241  1  0.49029000  0.22111000  0.22708000  1.0
  H  H242  1  0.57748000  0.28815000  0.23937000  1.0
  H  H243  1  0.56083000  0.25532000  0.21506000  1.0
  H  H244  1  0.40174000  0.23436000  0.27654000  1.0
  H  H245  1  0.04635000  0.19643000  0.72710000  1.0
  H  H246  1  0.02071000  0.28097000  0.68355000  1.0
  H  H247  1  0.94406000  0.29839000  0.69320000  1.0
  H  H248  1  0.97416000  0.21309000  0.74570000  1.0
  H  H249  1  0.89001000  0.28199000  0.73070000  1.0
  H  H250  1  0.90390000  0.24830000  0.75532000  1.0
  H  H251  1  0.06467000  0.22101000  0.69792000  1.0
  H  H252  1  0.65068000  0.77459000  0.72622000  1.0
  H  H253  1  0.76276000  0.79843000  0.73491000  1.0
  H  H254  1  0.76914000  0.87346000  0.73712000  1.0
  H  H255  1  0.64957000  0.84580000  0.72659000  1.0
  H  H256  1  0.69361000  0.92065000  0.75424000  1.0
  H  H257  1  0.66403000  0.91610000  0.72673000  1.0
  H  H258  1  0.69523000  0.76051000  0.70801000  1.0
  H  H259  1  0.81781000  0.78262000  0.23485000  1.0
  H  H260  1  0.70476000  0.80309000  0.22733000  1.0
  H  H261  1  0.69621000  0.87778000  0.22365000  1.0
  H  H262  1  0.81690000  0.85384000  0.23332000  1.0
  H  H263  1  0.76684000  0.92680000  0.20493000  1.0
  H  H264  1  0.80113000  0.92353000  0.22997000  1.0
  H  H265  1  0.77419000  0.76797000  0.25393000  1.0
  H  H266  1  0.30002000  0.04471000  0.20753000  1.0
  H  H267  1  0.36097000  0.09752000  0.24919000  1.0
  H  H268  1  0.33500000  0.16828000  0.25515000  1.0
  H  H269  1  0.24283000  0.10243000  0.22683000  1.0
  H  H270  1  0.25676000  0.19264000  0.26201000  1.0
  H  H271  1  0.22295000  0.16944000  0.24121000  1.0
  H  H272  1  0.33488000  0.03601000  0.23143000  1.0
  H  H273  1  0.25575000  0.16535000  0.74626000  1.0
  H  H274  1  0.15062000  0.17079000  0.71858000  1.0
  H  H275  1  0.12306000  0.10034000  0.71602000  1.0
  H  H276  1  0.23249000  0.09771000  0.75152000  1.0
  H  H277  1  0.14116000  0.03639000  0.73657000  1.0
  H  H278  1  0.17999000  0.03789000  0.75872000  1.0
  H  H279  1  0.23275000  0.18987000  0.72059000  1.0
  H  H280  1  0.65544000  0.28132000  0.22945000  1.0
  H  H281  1  0.76806000  0.30388000  0.23704000  1.0
  H  H282  1  0.77530000  0.37879000  0.23980000  1.0
  H  H283  1  0.65518000  0.35257000  0.22993000  1.0
  H  H284  1  0.70214000  0.42695000  0.25763000  1.0
  H  H285  1  0.67007000  0.42263000  0.23137000  1.0
  H  H286  1  0.69917000  0.26737000  0.21023000  1.0
  H  H287  1  0.79127000  0.41711000  0.73363000  1.0
  H  H288  1  0.68664000  0.37019000  0.72952000  1.0
  H  H289  1  0.69633000  0.29560000  0.73290000  1.0
  H  H290  1  0.80845000  0.34756000  0.73568000  1.0
  H  H291  1  0.76638000  0.26024000  0.75676000  1.0
  H  H292  1  0.81022000  0.27635000  0.73831000  1.0
  H  H293  1  0.75751000  0.41903000  0.70826000  1.0
  H  H294  1  0.30347000  0.53640000  0.70909000  1.0
  H  H295  1  0.22449000  0.58149000  0.72057000  1.0
  H  H296  1  0.22773000  0.65661000  0.72339000  1.0
  H  H297  1  0.33967000  0.61277000  0.73986000  1.0
  H  H298  1  0.33670000  0.68423000  0.73803000  1.0
  H  H299  1  0.29089000  0.69540000  0.75622000  1.0
  H  H300  1  0.32747000  0.54203000  0.73899000  1.0
  H  H301  1  0.26077000  0.66442000  0.24868000  1.0
  H  H302  1  0.15760000  0.67367000  0.21869000  1.0
  H  H303  1  0.12752000  0.60427000  0.21544000  1.0
  H  H304  1  0.23465000  0.59760000  0.25339000  1.0
  H  H305  1  0.14220000  0.53950000  0.23548000  1.0
  H  H306  1  0.17810000  0.53998000  0.25968000  1.0
  H  H307  1  0.24009000  0.68976000  0.22247000  1.0
  H  H308  1  0.68193000  0.63793000  0.01887000  1.0
  H  H309  1  0.71287000  0.53331000  0.00396000  1.0
  H  H310  1  0.76651000  0.53415000  0.96318000  1.0
  H  H311  1  0.73235000  0.64605000  0.98065000  1.0
  H  H312  1  0.81630000  0.59811000  0.94791000  1.0
  H  H313  1  0.78628000  0.63967000  0.94416000  1.0
  H  H314  1  0.65429000  0.59532000  0.01473000  1.0
  H  H315  1  0.16018000  0.32422000  0.02391000  1.0
  H  H316  1  0.26753000  0.30635000  0.00126000  1.0
  H  H317  1  0.28858000  0.35283000  0.96176000  1.0
  H  H318  1  0.17784000  0.38830000  0.99611000  1.0
  H  H319  1  0.25862000  0.43079000  0.95954000  1.0
  H  H320  1  0.20518000  0.42933000  0.95888000  1.0
  H  H321  1  0.20164000  0.29429000  0.02952000  1.0
  H  H322  1  0.79215000  0.13697000  0.44529000  1.0
  H  H323  1  0.76160000  0.03244000  0.46080000  1.0
  H  H324  1  0.70637000  0.03370000  0.50066000  1.0
  H  H325  1  0.73943000  0.14556000  0.48215000  1.0
  H  H326  1  0.65495000  0.09802000  0.51374000  1.0
  H  H327  1  0.68478000  0.13950000  0.51816000  1.0
  H  H328  1  0.81933000  0.09410000  0.44950000  1.0
  H  H329  1  0.15018000  0.84129000  0.51733000  1.0
  H  H330  1  0.24668000  0.79351000  0.49786000  1.0
  H  H331  1  0.28640000  0.83326000  0.46039000  1.0
  H  H332  1  0.19239000  0.90006000  0.49301000  1.0
  H  H333  1  0.28700000  0.91562000  0.45902000  1.0
  H  H334  1  0.23673000  0.93280000  0.45828000  1.0
  H  H335  1  0.17987000  0.80145000  0.52497000  1.0
  H  H336  1  0.83939000  0.42148000  0.76376000  1.0
  H  H337  1  0.86424000  0.38678000  0.83125000  1.0
  H  H338  1  0.93681000  0.41050000  0.84169000  1.0
  H  H339  1  0.90542000  0.46148000  0.77163000  1.0
  H  H340  1  0.97368000  0.47849000  0.82246000  1.0
  H  H341  1  0.97150000  0.48281000  0.78731000  1.0
  H  H342  1  0.81947000  0.39362000  0.79099000  1.0
  H  H343  1  0.49362000  0.48447000  0.15901000  1.0
  H  H344  1  0.53612000  0.39477000  0.12286000  1.0
  H  H345  1  0.60588000  0.37869000  0.14241000  1.0
  H  H346  1  0.55596000  0.47252000  0.18286000  1.0
  H  H347  1  0.64460000  0.40282000  0.18131000  1.0
  H  H348  1  0.61766000  0.43478000  0.20381000  1.0
  H  H349  1  0.49609000  0.46622000  0.12614000  1.0
  H  H350  1  0.01019000  0.53399000  0.10247000  1.0
  H  H351  1  0.98637000  0.48502000  0.14554000  1.0
  H  H352  1  0.03092000  0.46224000  0.18393000  1.0
  H  H353  1  0.08298000  0.55986000  0.14965000  1.0
  H  H354  1  0.08834000  0.49835000  0.20957000  1.0
  H  H355  1  0.11440000  0.53591000  0.19135000  1.0
  H  H356  1  0.03696000  0.57430000  0.11355000  1.0
  H  H357  1  0.35184000  0.53832000  0.78251000  1.0
  H  H358  1  0.42888000  0.45861000  0.79181000  1.0
  H  H359  1  0.47554000  0.48023000  0.82943000  1.0
  H  H360  1  0.38677000  0.56262000  0.82213000  1.0
  H  H361  1  0.46009000  0.53324000  0.86949000  1.0
  H  H362  1  0.43251000  0.57399000  0.85921000  1.0
  H  H363  1  0.37607000  0.50074000  0.76388000  1.0
  H  H364  1  0.84999000  0.92983000  0.25978000  1.0
  H  H365  1  0.86865000  0.88631000  0.32575000  1.0
  H  H366  1  0.93993000  0.90760000  0.34052000  1.0
  H  H367  1  0.91493000  0.96862000  0.27293000  1.0
  H  H368  1  0.97824000  0.97774000  0.32733000  1.0
  H  H369  1  0.97932000  0.98675000  0.29246000  1.0
  H  H370  1  0.82722000  0.89973000  0.28488000  1.0
  H  H371  1  0.61351000  0.92644000  0.69765000  1.0
  H  H372  1  0.60326000  0.87999000  0.63190000  1.0
  H  H373  1  0.53526000  0.90127000  0.61206000  1.0
  H  H374  1  0.55242000  0.96708000  0.67889000  1.0
  H  H375  1  0.49465000  0.96926000  0.61973000  1.0
  H  H376  1  0.49357000  0.98658000  0.65311000  1.0
  H  H377  1  0.63977000  0.89631000  0.67399000  1.0
  H  H378  1  0.10875000  0.03014000  0.69525000  1.0
  H  H379  1  0.02505000  0.95777000  0.68565000  1.0
  H  H380  1  0.98141000  0.98228000  0.64728000  1.0
  H  H381  1  0.07829000  0.05624000  0.65350000  1.0
  H  H382  1  0.00643000  0.03201000  0.60535000  1.0
  H  H383  1  0.03337000  0.07221000  0.61709000  1.0
  H  H384  1  0.08344000  0.99137000  0.71198000  1.0
  H  H385  1  0.43968000  0.07434000  0.35557000  1.0
  H  H386  1  0.48461000  0.98259000  0.32380000  1.0
  H  H387  1  0.43778000  0.96140000  0.28617000  1.0
  H  H388  1  0.39350000  0.06323000  0.31886000  1.0
  H  H389  1  0.38268000  0.00139000  0.26002000  1.0
  H  H390  1  0.35872000  0.03965000  0.27866000  1.0
  H  H391  1  0.46685000  0.03367000  0.36558000  1.0
  W  W392  1  0.67805000  0.58997000  0.81231000  1.0
  W  W393  1  0.78851000  0.59408000  0.15297000  1.0
  W  W394  1  0.28326000  0.37070000  0.16276000  1.0
  W  W395  1  0.18005000  0.37174000  0.80729000  1.0
  W  W396  1  0.68568000  0.09398000  0.31131000  1.0
  W  W397  1  0.78411000  0.09030000  0.65351000  1.0
  W  W398  1  0.28048000  0.87253000  0.65661000  1.0
  W  W399  1  0.18774000  0.87420000  0.30773000  1.0
  C  C400  1  0.77458000  0.59518000  0.91746000  1.0
  C  C401  1  0.73713000  0.60411000  0.90859000  1.0
  C  C402  1  0.72783000  0.59317000  0.88344000  1.0
  C  C403  1  0.81096000  0.45352000  0.79580000  1.0
  C  C404  1  0.80775000  0.48633000  0.78077000  1.0
  C  C405  1  0.78705000  0.51740000  0.79151000  1.0
  C  C406  1  0.77318000  0.48433000  0.83134000  1.0
  C  C407  1  0.79331000  0.45260000  0.82133000  1.0
  C  C408  1  0.57756000  0.72409000  0.74803000  1.0
  C  C409  1  0.58063000  0.68772000  0.73736000  1.0
  C  C410  1  0.59289000  0.65797000  0.75281000  1.0
  C  C411  1  0.60009000  0.69953000  0.78852000  1.0
  C  C412  1  0.58833000  0.73009000  0.77369000  1.0
  C  C413  1  0.69939000  0.45452000  0.78798000  1.0
  C  C414  1  0.72253000  0.42894000  0.77267000  1.0
  C  C415  1  0.72293000  0.47317000  0.73678000  1.0
  C  C416  1  0.70005000  0.49791000  0.75275000  1.0
  C  C417  1  0.73398000  0.43800000  0.74654000  1.0
  C  C418  1  0.49121000  0.56941000  0.84092000  1.0
  C  C419  1  0.52514000  0.60791000  0.80751000  1.0
  C  C420  1  0.48983000  0.59323000  0.81908000  1.0
  C  C421  1  0.56256000  0.57734000  0.83909000  1.0
  C  C422  1  0.52804000  0.56165000  0.85107000  1.0
  C  C423  1  0.69598000  0.73208000  0.79545000  1.0
  C  C424  1  0.69041000  0.75810000  0.77541000  1.0
  C  C425  1  0.69749000  0.70718000  0.74409000  1.0
  C  C426  1  0.70260000  0.68212000  0.76470000  1.0
  C  C427  1  0.69155000  0.74571000  0.74930000  1.0
  C  C428  1  0.79155000  0.56540000  0.87561000  1.0
  C  C429  1  0.80200000  0.57558000  0.90067000  1.0
  C  C430  1  0.69454000  0.59506000  0.04640000  1.0
  C  C431  1  0.73157000  0.60478000  0.05559000  1.0
  C  C432  1  0.74014000  0.59512000  0.08113000  1.0
  C  C433  1  0.65183000  0.46145000  0.17174000  1.0
  C  C434  1  0.65470000  0.49548000  0.18548000  1.0
  C  C435  1  0.67660000  0.52532000  0.17403000  1.0
  C  C436  1  0.69252000  0.48867000  0.13602000  1.0
  C  C437  1  0.67120000  0.45809000  0.14680000  1.0
  C  C438  1  0.88993000  0.72870000  0.21682000  1.0
  C  C439  1  0.88424000  0.69308000  0.22834000  1.0
  C  C440  1  0.87123000  0.66319000  0.21331000  1.0
  C  C441  1  0.86810000  0.70325000  0.17639000  1.0
  C  C442  1  0.88067000  0.73396000  0.19077000  1.0
  C  C443  1  0.76507000  0.45921000  0.17890000  1.0
  C  C444  1  0.74103000  0.43417000  0.19406000  1.0
  C  C445  1  0.73835000  0.47974000  0.22918000  1.0
  C  C446  1  0.76215000  0.50393000  0.21336000  1.0
  C  C447  1  0.72799000  0.44417000  0.21974000  1.0
  C  C448  1  0.97694000  0.57097000  0.12978000  1.0
  C  C449  1  0.94091000  0.61003000  0.16190000  1.0
  C  C450  1  0.97680000  0.59479000  0.15169000  1.0
  C  C451  1  0.90593000  0.57992000  0.12888000  1.0
  C  C452  1  0.94109000  0.56371000  0.11820000  1.0
  C  C453  1  0.77359000  0.73695000  0.16681000  1.0
  C  C454  1  0.77926000  0.76352000  0.18647000  1.0
  C  C455  1  0.76931000  0.71401000  0.21867000  1.0
  C  C456  1  0.76413000  0.68837000  0.19842000  1.0
  C  C457  1  0.77682000  0.75213000  0.21280000  1.0
  C  C458  1  0.67645000  0.56719000  0.08872000  1.0
  C  C459  1  0.66675000  0.57607000  0.06327000  1.0
  C  C460  1  0.19937000  0.34400000  0.05326000  1.0
  C  C461  1  0.23788000  0.34672000  0.06212000  1.0
  C  C462  1  0.24324000  0.36174000  0.08692000  1.0
  C  C463  1  0.12921000  0.47986000  0.17805000  1.0
  C  C464  1  0.12737000  0.44192000  0.18570000  1.0
  C  C465  1  0.15358000  0.41598000  0.17346000  1.0
  C  C466  1  0.18263000  0.46405000  0.14623000  1.0
  C  C467  1  0.15706000  0.49092000  0.15801000  1.0
  C  C468  1  0.39490000  0.26061000  0.23904000  1.0
  C  C469  1  0.37609000  0.29329000  0.24909000  1.0
  C  C470  1  0.36130000  0.31961000  0.23189000  1.0
  C  C471  1  0.38156000  0.28118000  0.19551000  1.0
  C  C472  1  0.39679000  0.25418000  0.21200000  1.0
  C  C473  1  0.25224000  0.51182000  0.18689000  1.0
  C  C474  1  0.22622000  0.53637000  0.20097000  1.0
  C  C475  1  0.20122000  0.48324000  0.22654000  1.0
  C  C476  1  0.22749000  0.45971000  0.21188000  1.0
  C  C477  1  0.20095000  0.52224000  0.22162000  1.0
  C  C478  1  0.46205000  0.43257000  0.15510000  1.0
  C  C479  1  0.42164000  0.39988000  0.18861000  1.0
  C  C480  1  0.45359000  0.42368000  0.18157000  1.0
  C  C481  1  0.40667000  0.39360000  0.14414000  1.0
  C  C482  1  0.43844000  0.41710000  0.13622000  1.0
  C  C483  1  0.26500000  0.22344000  0.17491000  1.0
  C  C484  1  0.26123000  0.19612000  0.19462000  1.0
  C  C485  1  0.27183000  0.24481000  0.22648000  1.0
  C  C486  1  0.27502000  0.27128000  0.20617000  1.0
  C  C487  1  0.26403000  0.20681000  0.22083000  1.0
  C  C488  1  0.17378000  0.37157000  0.09430000  1.0
  C  C489  1  0.16709000  0.35698000  0.06955000  1.0
  C  C490  1  0.23649000  0.40106000  0.92658000  1.0
  C  C491  1  0.20285000  0.38869000  0.91420000  1.0
  C  C492  1  0.20490000  0.38453000  0.88695000  1.0
  C  C493  1  0.33380000  0.48306000  0.79532000  1.0
  C  C494  1  0.32625000  0.44874000  0.78298000  1.0
  C  C495  1  0.29816000  0.42398000  0.79462000  1.0
  C  C496  1  0.28510000  0.46629000  0.83005000  1.0
  C  C497  1  0.31273000  0.49194000  0.81903000  1.0
  C  C498  1  0.07227000  0.25099000  0.73400000  1.0
  C  C499  1  0.09377000  0.28105000  0.72224000  1.0
  C  C500  1  0.10895000  0.30909000  0.73797000  1.0
  C  C501  1  0.08410000  0.27718000  0.77634000  1.0
  C  C502  1  0.06839000  0.24860000  0.76135000  1.0
  C  C503  1  0.22584000  0.50228000  0.78235000  1.0
  C  C504  1  0.25336000  0.52695000  0.76977000  1.0
  C  C505  1  0.25812000  0.48459000  0.73275000  1.0
  C  C506  1  0.23070000  0.46067000  0.74606000  1.0
  C  C507  1  0.26915000  0.51852000  0.74441000  1.0
  C  C508  1  0.00518000  0.43537000  0.79981000  1.0
  C  C509  1  0.04605000  0.39444000  0.77155000  1.0
  C  C510  1  0.01439000  0.41978000  0.77498000  1.0
  C  C511  1  0.05891000  0.39937000  0.81649000  1.0
  C  C512  1  0.02747000  0.42469000  0.82080000  1.0
  C  C513  1  0.20245000  0.22474000  0.80546000  1.0
  C  C514  1  0.21043000  0.19616000  0.78697000  1.0
  C  C515  1  0.20152000  0.24154000  0.75262000  1.0
  C  C516  1  0.19396000  0.26929000  0.77174000  1.0
  C  C517  1  0.21095000  0.20467000  0.76018000  1.0
  C  C518  1  0.27303000  0.40196000  0.88427000  1.0
  C  C519  1  0.27230000  0.40642000  0.91145000  1.0
  C  C520  1  0.77941000  0.09427000  0.41764000  1.0
  C  C521  1  0.74260000  0.10439000  0.40830000  1.0
  C  C522  1  0.73413000  0.09477000  0.38275000  1.0
  C  C523  1  0.81934000  0.95914000  0.29233000  1.0
  C  C524  1  0.81692000  0.99303000  0.27839000  1.0
  C  C525  1  0.79598000  0.02346000  0.28985000  1.0
  C  C526  1  0.78030000  0.98763000  0.32828000  1.0
  C  C527  1  0.80064000  0.95649000  0.31750000  1.0
  C  C528  1  0.58249000  0.22977000  0.24974000  1.0
  C  C529  1  0.58636000  0.19402000  0.23814000  1.0
  C  C530  1  0.59987000  0.16385000  0.25271000  1.0
  C  C531  1  0.60697000  0.20384000  0.28926000  1.0
  C  C532  1  0.59405000  0.23482000  0.27532000  1.0
  C  C533  1  0.70741000  0.95918000  0.28451000  1.0
  C  C534  1  0.73086000  0.93412000  0.26897000  1.0
  C  C535  1  0.73374000  0.98042000  0.23431000  1.0
  C  C536  1  0.71052000  0.00460000  0.25049000  1.0
  C  C537  1  0.74364000  0.94447000  0.24330000  1.0
  C  C538  1  0.49865000  0.07069000  0.33758000  1.0
  C  C539  1  0.53302000  0.11010000  0.30492000  1.0
  C  C540  1  0.49762000  0.09469000  0.31582000  1.0
  C  C541  1  0.56976000  0.07981000  0.33698000  1.0
  C  C542  1  0.53515000  0.06342000  0.34831000  1.0
  C  C543  1  0.70179000  0.23662000  0.29727000  1.0
  C  C544  1  0.69570000  0.26314000  0.27764000  1.0
  C  C545  1  0.70417000  0.21339000  0.24551000  1.0
  C  C546  1  0.70978000  0.18780000  0.26573000  1.0
  C  C547  1  0.69718000  0.25159000  0.25135000  1.0
  C  C548  1  0.79750000  0.06610000  0.37541000  1.0
  C  C549  1  0.80710000  0.07494000  0.40089000  1.0
  C  C550  1  0.69466000  0.09514000  0.54535000  1.0
  C  C551  1  0.73147000  0.10402000  0.55521000  1.0
  C  C552  1  0.73915000  0.09324000  0.58069000  1.0
  C  C553  1  0.64864000  0.95561000  0.66690000  1.0
  C  C554  1  0.65072000  0.98885000  0.68161000  1.0
  C  C555  1  0.67275000  0.01939000  0.67130000  1.0
  C  C556  1  0.69037000  0.98490000  0.63256000  1.0
  C  C557  1  0.66900000  0.95365000  0.64219000  1.0
  C  C558  1  0.88378000  0.22392000  0.71980000  1.0
  C  C559  1  0.87882000  0.18791000  0.73083000  1.0
  C  C560  1  0.86576000  0.15835000  0.71552000  1.0
  C  C561  1  0.86103000  0.19952000  0.67933000  1.0
  C  C562  1  0.87354000  0.22992000  0.69402000  1.0
  C  C563  1  0.76065000  0.95482000  0.67712000  1.0
  C  C564  1  0.73614000  0.92929000  0.69152000  1.0
  C  C565  1  0.73262000  0.97344000  0.72751000  1.0
  C  C566  1  0.75695000  0.99813000  0.71243000  1.0
  C  C567  1  0.72234000  0.93835000  0.71722000  1.0
  C  C568  1  0.97279000  0.06869000  0.63232000  1.0
  C  C569  1  0.93581000  0.10720000  0.66431000  1.0
  C  C570  1  0.97199000  0.09227000  0.65437000  1.0
  C  C571  1  0.90185000  0.07735000  0.63071000  1.0
  C  C572  1  0.93730000  0.06144000  0.62029000  1.0
  C  C573  1  0.76639000  0.23265000  0.66932000  1.0
  C  C574  1  0.77149000  0.25861000  0.68946000  1.0
  C  C575  1  0.76284000  0.20775000  0.72072000  1.0
  C  C576  1  0.75817000  0.18275000  0.70001000  1.0
  C  C577  1  0.76947000  0.24621000  0.71557000  1.0
  C  C578  1  0.67507000  0.06567000  0.58691000  1.0
  C  C579  1  0.66623000  0.07570000  0.56150000  1.0
  C  C580  1  0.18936000  0.84938000  0.54909000  1.0
  C  C581  1  0.22765000  0.84682000  0.55838000  1.0
  C  C582  1  0.23431000  0.85988000  0.58352000  1.0
  C  C583  1  0.12374000  0.97552000  0.67916000  1.0
  C  C584  1  0.12324000  0.93714000  0.68572000  1.0
  C  C585  1  0.14938000  0.91247000  0.67209000  1.0
  C  C586  1  0.17566000  0.96266000  0.64565000  1.0
  C  C587  1  0.15018000  0.98830000  0.65884000  1.0
  C  C588  1  0.39197000  0.75843000  0.72824000  1.0
  C  C589  1  0.37106000  0.78938000  0.73925000  1.0
  C  C590  1  0.35713000  0.81727000  0.72288000  1.0
  C  C591  1  0.38266000  0.78388000  0.68533000  1.0
  C  C592  1  0.39707000  0.75538000  0.70096000  1.0
  C  C593  1  0.24851000  0.01269000  0.68363000  1.0
  C  C594  1  0.22307000  0.03639000  0.69888000  1.0
  C  C595  1  0.19988000  0.98192000  0.72371000  1.0
  C  C596  1  0.22554000  0.95927000  0.70792000  1.0
  C  C597  1  0.19901000  0.02112000  0.71974000  1.0
  C  C598  1  0.46003000  0.93598000  0.64825000  1.0
  C  C599  1  0.41866000  0.90359000  0.68139000  1.0
  C  C600  1  0.45058000  0.92756000  0.67468000  1.0
  C  C601  1  0.40549000  0.89640000  0.63666000  1.0
  C  C602  1  0.43729000  0.92004000  0.62908000  1.0
  C  C603  1  0.29710000  0.72994000  0.66964000  1.0
  C  C604  1  0.30497000  0.70380000  0.68915000  1.0
  C  C605  1  0.27602000  0.74707000  0.72148000  1.0
  C  C606  1  0.26891000  0.77247000  0.70139000  1.0
  C  C607  1  0.29408000  0.71219000  0.71541000  1.0
  C  C608  1  0.16653000  0.87741000  0.59059000  1.0
  C  C609  1  0.15862000  0.86502000  0.56550000  1.0
  C  C610  1  0.25558000  0.89869000  0.42527000  1.0
  C  C611  1  0.21961000  0.88968000  0.41431000  1.0
  C  C612  1  0.21840000  0.88704000  0.38708000  1.0
  C  C613  1  0.34131000  0.98460000  0.29198000  1.0
  C  C614  1  0.33352000  0.95000000  0.28010000  1.0
  C  C615  1  0.30604000  0.92527000  0.29241000  1.0
  C  C616  1  0.29412000  0.96810000  0.32766000  1.0
  C  C617  1  0.32109000  0.99377000  0.31593000  1.0
  C  C618  1  0.07765000  0.75400000  0.23579000  1.0
  C  C619  1  0.09996000  0.78347000  0.22393000  1.0
  C  C620  1  0.11547000  0.81150000  0.23953000  1.0
  C  C621  1  0.08927000  0.78073000  0.27800000  1.0
  C  C622  1  0.07319000  0.75219000  0.26315000  1.0
  C  C623  1  0.23224000  0.00595000  0.28252000  1.0
  C  C624  1  0.25949000  0.03054000  0.26954000  1.0
  C  C625  1  0.26416000  0.98727000  0.23307000  1.0
  C  C626  1  0.23707000  0.96346000  0.24677000  1.0
  C  C627  1  0.27510000  0.02165000  0.24417000  1.0
  C  C628  1  0.01167000  0.93754000  0.30309000  1.0
  C  C629  1  0.05290000  0.89810000  0.27399000  1.0
  C  C630  1  0.02112000  0.92321000  0.27792000  1.0
  C  C631  1  0.06557000  0.90097000  0.31903000  1.0
  C  C632  1  0.03396000  0.92597000  0.32386000  1.0
  C  C633  1  0.20886000  0.72669000  0.30659000  1.0
  C  C634  1  0.21641000  0.69756000  0.28847000  1.0
  C  C635  1  0.20771000  0.74208000  0.25357000  1.0
  C  C636  1  0.20054000  0.77041000  0.27235000  1.0
  C  C637  1  0.21691000  0.70537000  0.26159000  1.0
  C  C638  1  0.28745000  0.90026000  0.38150000  1.0
  C  C639  1  0.29003000  0.90300000  0.40859000  1.0
  C  C640  1  0.41263000  0.73129000  0.74539000  1.0
  C  C641  1  0.55885000  0.75540000  0.73332000  1.0
  C  C642  1  0.50230000  0.77942000  0.76318000  1.0
  C  C643  1  0.46221000  0.77170000  0.76713000  1.0
  C  C644  1  0.48624000  0.73835000  0.73463000  1.0
  C  C645  1  0.05460000  0.72760000  0.21947000  1.0
  C  C646  1  0.90997000  0.75968000  0.23109000  1.0
  C  C647  1  0.96809000  0.78065000  0.20139000  1.0
  C  C648  1  0.00767000  0.77077000  0.19758000  1.0
  C  C649  1  0.98152000  0.73894000  0.23019000  1.0
  C  C650  1  0.56161000  0.26112000  0.23637000  1.0
  C  C651  1  0.41702000  0.23530000  0.25663000  1.0
  C  C652  1  0.46842000  0.27804000  0.27435000  1.0
  C  C653  1  0.50793000  0.28626000  0.26808000  1.0
  C  C654  1  0.48959000  0.24217000  0.24244000  1.0
  C  C655  1  0.90472000  0.25443000  0.73398000  1.0
  C  C656  1  0.04929000  0.22463000  0.71764000  1.0
  C  C657  1  0.00031000  0.26829000  0.69819000  1.0
  C  C658  1  0.96083000  0.27763000  0.70340000  1.0
  C  C659  1  0.97638000  0.23379000  0.73011000  1.0
  C  C660  1  0.69459000  0.91246000  0.73324000  1.0
  C  C661  1  0.68350000  0.77227000  0.72710000  1.0
  C  C662  1  0.73898000  0.81869000  0.73338000  1.0
  C  C663  1  0.74237000  0.85753000  0.73422000  1.0
  C  C664  1  0.68120000  0.84314000  0.72897000  1.0
  C  C665  1  0.76959000  0.91891000  0.22576000  1.0
  C  C666  1  0.78499000  0.77940000  0.23454000  1.0
  C  C667  1  0.72800000  0.82404000  0.22821000  1.0
  C  C668  1  0.72350000  0.86270000  0.22658000  1.0
  C  C669  1  0.78525000  0.85022000  0.23142000  1.0
  C  C670  1  0.25424000  0.17893000  0.24264000  1.0
  C  C671  1  0.30445000  0.04690000  0.22881000  1.0
  C  C672  1  0.33166000  0.10787000  0.24536000  1.0
  C  C673  1  0.31844000  0.14458000  0.24812000  1.0
  C  C674  1  0.27131000  0.11066000  0.23375000  1.0
  C  C675  1  0.17263000  0.04490000  0.73840000  1.0
  C  C676  1  0.22684000  0.17635000  0.74006000  1.0
  C  C677  1  0.16450000  0.14563000  0.72574000  1.0
  C  C678  1  0.15055000  0.10911000  0.72408000  1.0
  C  C679  1  0.20638000  0.10802000  0.74244000  1.0
  C  C680  1  0.70119000  0.41864000  0.23674000  1.0
  C  C681  1  0.68833000  0.27869000  0.22964000  1.0
  C  C682  1  0.74447000  0.32440000  0.23586000  1.0
  C  C683  1  0.74829000  0.36318000  0.23700000  1.0
  C  C684  1  0.68684000  0.34953000  0.23208000  1.0
  C  C685  1  0.77747000  0.27277000  0.73777000  1.0
  C  C686  1  0.75986000  0.41203000  0.72927000  1.0
  C  C687  1  0.71432000  0.35543000  0.73184000  1.0
  C  C688  1  0.71939000  0.31681000  0.73328000  1.0
  C  C689  1  0.77663000  0.34362000  0.73487000  1.0
  C  C690  1  0.30383000  0.68522000  0.73697000  1.0
  C  C691  1  0.29848000  0.54471000  0.72998000  1.0
  C  C692  1  0.24984000  0.59822000  0.72548000  1.0
  C  C693  1  0.25164000  0.63712000  0.72666000  1.0
  C  C694  1  0.30875000  0.61446000  0.73522000  1.0
  C  C695  1  0.17348000  0.54702000  0.23891000  1.0
  C  C696  1  0.23270000  0.67645000  0.24184000  1.0
  C  C697  1  0.17009000  0.64800000  0.22613000  1.0
  C  C698  1  0.15486000  0.61202000  0.22411000  1.0
  C  C699  1  0.20951000  0.60886000  0.24373000  1.0
  C  C700  1  0.78599000  0.60830000  0.94403000  1.0
  C  C701  1  0.68385000  0.60663000  0.01934000  1.0
  C  C702  1  0.72435000  0.55794000  0.99355000  1.0
  C  C703  1  0.75185000  0.55836000  0.97234000  1.0
  C  C704  1  0.73435000  0.61558000  0.98146000  1.0
  C  C705  1  0.23296000  0.41269000  0.95502000  1.0
  C  C706  1  0.19230000  0.32424000  0.02782000  1.0
  C  C707  1  0.25061000  0.33010000  0.99472000  1.0
  C  C708  1  0.26135000  0.35394000  0.97415000  1.0
  C  C709  1  0.20471000  0.37202000  0.99187000  1.0
  C  C710  1  0.68497000  0.10814000  0.51840000  1.0
  C  C711  1  0.78993000  0.10568000  0.44477000  1.0
  C  C712  1  0.74940000  0.05721000  0.47071000  1.0
  C  C713  1  0.72105000  0.05785000  0.49144000  1.0
  C  C714  1  0.73802000  0.11504000  0.48180000  1.0
  C  C715  1  0.25633000  0.90800000  0.45404000  1.0
  C  C716  1  0.18024000  0.83269000  0.52296000  1.0
  C  C717  1  0.23993000  0.82185000  0.49167000  1.0
  C  C718  1  0.26030000  0.84228000  0.47216000  1.0
  C  C719  1  0.21220000  0.87639000  0.48900000  1.0
  C  C720  1  0.97116000  0.46255000  0.80392000  1.0
  C  C721  1  0.83496000  0.42042000  0.78542000  1.0
  C  C722  1  0.88341000  0.40513000  0.81921000  1.0
  C  C723  1  0.92076000  0.41764000  0.82471000  1.0
  C  C724  1  0.90470000  0.44342000  0.78873000  1.0
  C  C725  1  0.62697000  0.42936000  0.18293000  1.0
  C  C726  1  0.49622000  0.45820000  0.14713000  1.0
  C  C727  1  0.54951000  0.40925000  0.13870000  1.0
  C  C728  1  0.58543000  0.40080000  0.14890000  1.0
  C  C729  1  0.55970000  0.44887000  0.16953000  1.0
  C  C730  1  0.09985000  0.50789000  0.18982000  1.0
  C  C731  1  0.01487000  0.55219000  0.11969000  1.0
  C  C732  1  0.01340000  0.49812000  0.15146000  1.0
  C  C733  1  0.03615000  0.48660000  0.17147000  1.0
  C  C734  1  0.06279000  0.53651000  0.15375000  1.0
  C  C735  1  0.45371000  0.55139000  0.85254000  1.0
  C  C736  1  0.36493000  0.50963000  0.78385000  1.0
  C  C737  1  0.42615000  0.48422000  0.80327000  1.0
  C  C738  1  0.44997000  0.49518000  0.82288000  1.0
  C  C739  1  0.40458000  0.53738000  0.81897000  1.0
  C  C740  1  0.97744000  0.96437000  0.30772000  1.0
  C  C741  1  0.84361000  0.92665000  0.28121000  1.0
  C  C742  1  0.88879000  0.90606000  0.31572000  1.0
  C  C743  1  0.92546000  0.91730000  0.32348000  1.0
  C  C744  1  0.91269000  0.94823000  0.28873000  1.0
  C  C745  1  0.49496000  0.96085000  0.64065000  1.0
  C  C746  1  0.62295000  0.92321000  0.67658000  1.0
  C  C747  1  0.58258000  0.90098000  0.63991000  1.0
  C  C748  1  0.54765000  0.91222000  0.62952000  1.0
  C  C749  1  0.55640000  0.94562000  0.66388000  1.0
  C  C750  1  0.01104000  0.05004000  0.62267000  1.0
  C  C751  1  0.09446000  0.00227000  0.69248000  1.0
  C  C752  1  0.03038000  0.98283000  0.67388000  1.0
  C  C753  1  0.00813000  0.99520000  0.65385000  1.0
  C  C754  1  0.05761000  0.03317000  0.65726000  1.0
  C  C755  1  0.37208000  0.01108000  0.27992000  1.0
  C  C756  1  0.46116000  0.05211000  0.34865000  1.0
  C  C757  1  0.45849000  0.99720000  0.31778000  1.0
  C  C758  1  0.43458000  0.98648000  0.29817000  1.0
  C  C759  1  0.41191000  0.03853000  0.31507000  1.0
  S  S760  1  0.64058000  0.57488000  0.77518000  1.0
  S  S761  1  0.67832000  0.53370000  0.83861000  1.0
  S  S762  1  0.74639000  0.60916000  0.80399000  1.0
  S  S763  1  0.64480000  0.64214000  0.83445000  1.0
  S  S764  1  0.82382000  0.57969000  0.19119000  1.0
  S  S765  1  0.78804000  0.53688000  0.12765000  1.0
  S  S766  1  0.72045000  0.61486000  0.15975000  1.0
  S  S767  1  0.82386000  0.64480000  0.13053000  1.0
  S  S768  1  0.30765000  0.39362000  0.20297000  1.0
  S  S769  1  0.27757000  0.42494000  0.13489000  1.0
  S  S770  1  0.21956000  0.33968000  0.16553000  1.0
  S  S771  1  0.33075000  0.32494000  0.14517000  1.0
  S  S772  1  0.16274000  0.38595000  0.76348000  1.0
  S  S773  1  0.18053000  0.43125000  0.82994000  1.0
  S  S774  1  0.24339000  0.34194000  0.81287000  1.0
  S  S775  1  0.13016000  0.32862000  0.82542000  1.0
  S  S776  1  0.64931000  0.08026000  0.27344000  1.0
  S  S777  1  0.68582000  0.03665000  0.33649000  1.0
  S  S778  1  0.75393000  0.11401000  0.30410000  1.0
  S  S779  1  0.65141000  0.14489000  0.33424000  1.0
  S  S780  1  0.81834000  0.07520000  0.69205000  1.0
  S  S781  1  0.78534000  0.03390000  0.62730000  1.0
  S  S782  1  0.71566000  0.11015000  0.65958000  1.0
  S  S783  1  0.81942000  0.14197000  0.63218000  1.0
  S  S784  1  0.30669000  0.89524000  0.69631000  1.0
  S  S785  1  0.27057000  0.92700000  0.62974000  1.0
  S  S786  1  0.21830000  0.83885000  0.66115000  1.0
  S  S787  1  0.32854000  0.82925000  0.63682000  1.0
  S  S788  1  0.16859000  0.88928000  0.26446000  1.0
  S  S789  1  0.18985000  0.93330000  0.33079000  1.0
  S  S790  1  0.25120000  0.84383000  0.31167000  1.0
  S  S791  1  0.13827000  0.83119000  0.32653000  1.0
  N  N792  1  0.77054000  0.51587000  0.81645000  1.0
  N  N793  1  0.60176000  0.66427000  0.77801000  1.0
  N  N794  1  0.68854000  0.48820000  0.77782000  1.0
  N  N795  1  0.56049000  0.59946000  0.81752000  1.0
  N  N796  1  0.70188000  0.69492000  0.78977000  1.0
  N  N797  1  0.75505000  0.57441000  0.86751000  1.0
  N  N798  1  0.69471000  0.52145000  0.14964000  1.0
  N  N799  1  0.86414000  0.66862000  0.18771000  1.0
  N  N800  1  0.77524000  0.49329000  0.18877000  1.0
  N  N801  1  0.90649000  0.60208000  0.15053000  1.0
  N  N802  1  0.76628000  0.70018000  0.17310000  1.0
  N  N803  1  0.71257000  0.57689000  0.09712000  1.0
  N  N804  1  0.18064000  0.42745000  0.15420000  1.0
  N  N805  1  0.36483000  0.31338000  0.20562000  1.0
  N  N806  1  0.25287000  0.47437000  0.19278000  1.0
  N  N807  1  0.39888000  0.38561000  0.16995000  1.0
  N  N808  1  0.27109000  0.26028000  0.18101000  1.0
  N  N809  1  0.21133000  0.37323000  0.10257000  1.0
  N  N810  1  0.27858000  0.43301000  0.81785000  1.0
  N  N811  1  0.10321000  0.30703000  0.76446000  1.0
  N  N812  1  0.21492000  0.46998000  0.77033000  1.0
  N  N813  1  0.06767000  0.38506000  0.79214000  1.0
  N  N814  1  0.19526000  0.26065000  0.79756000  1.0
  N  N815  1  0.23932000  0.39235000  0.87256000  1.0
  N  N816  1  0.77846000  0.02025000  0.31445000  1.0
  N  N817  1  0.60912000  0.16912000  0.27793000  1.0
  N  N818  1  0.69757000  0.99359000  0.27504000  1.0
  N  N819  1  0.56807000  0.10218000  0.31551000  1.0
  N  N820  1  0.70854000  0.19977000  0.29101000  1.0
  N  N821  1  0.76157000  0.07617000  0.36688000  1.0
  N  N822  1  0.69169000  0.01694000  0.64707000  1.0
  N  N823  1  0.85799000  0.16449000  0.69010000  1.0
  N  N824  1  0.77060000  0.98847000  0.68776000  1.0
  N  N825  1  0.90175000  0.09920000  0.65255000  1.0
  N  N826  1  0.76001000  0.19553000  0.67491000  1.0
  N  N827  1  0.71096000  0.07466000  0.59598000  1.0
  N  N828  1  0.17504000  0.92560000  0.65258000  1.0
  N  N829  1  0.36363000  0.81428000  0.69646000  1.0
  N  N830  1  0.24978000  0.97499000  0.68863000  1.0
  N  N831  1  0.39687000  0.88871000  0.66244000  1.0
  N  N832  1  0.27935000  0.76346000  0.67605000  1.0
  N  N833  1  0.20382000  0.87433000  0.59914000  1.0
  N  N834  1  0.28732000  0.93458000  0.31587000  1.0
  N  N835  1  0.10924000  0.80997000  0.26603000  1.0
  N  N836  1  0.22142000  0.97322000  0.27098000  1.0
  N  N837  1  0.07446000  0.88779000  0.29439000  1.0
  N  N838  1  0.20203000  0.76245000  0.29826000  1.0
  N  N839  1  0.25184000  0.89334000  0.37130000  1.0
  N  N840  1  0.51703000  0.75874000  0.74265000  1.0
  N  N841  1  0.45243000  0.74592000  0.74925000  1.0
  N  N842  1  0.95202000  0.76089000  0.22197000  1.0
  N  N843  1  0.01581000  0.74460000  0.21562000  1.0
  N  N844  1  0.45728000  0.25016000  0.25843000  1.0
  N  N845  1  0.52092000  0.26377000  0.24806000  1.0
  N  N846  1  0.00972000  0.24059000  0.71480000  1.0
  N  N847  1  0.94610000  0.25599000  0.72342000  1.0
  N  N848  1  0.70051000  0.80993000  0.73049000  1.0
  N  N849  1  0.70615000  0.87263000  0.73111000  1.0
  N  N850  1  0.76683000  0.81646000  0.23086000  1.0
  N  N851  1  0.75941000  0.87889000  0.22892000  1.0
  N  N852  1  0.30193000  0.08670000  0.23661000  1.0
  N  N853  1  0.28075000  0.14617000  0.24071000  1.0
  N  N854  1  0.19938000  0.14475000  0.73733000  1.0
  N  N855  1  0.17707000  0.08570000  0.73435000  1.0
  N  N856  1  0.70581000  0.31610000  0.23318000  1.0
  N  N857  1  0.71215000  0.37870000  0.23429000  1.0
  N  N858  1  0.75022000  0.37203000  0.73329000  1.0
  N  N859  1  0.75853000  0.30966000  0.73489000  1.0
  N  N860  1  0.28553000  0.58421000  0.73130000  1.0
  N  N861  1  0.28877000  0.64708000  0.73249000  1.0
  N  N862  1  0.20422000  0.64585000  0.23852000  1.0
  N  N863  1  0.17985000  0.58763000  0.23493000  1.0
  N  N864  1  0.71382000  0.59388000  0.99926000  1.0
  N  N865  1  0.75774000  0.59450000  0.96480000  1.0
  N  N866  1  0.21516000  0.34162000  0.00569000  1.0
  N  N867  1  0.23229000  0.37983000  0.97233000  1.0
  N  N868  1  0.75963000  0.09312000  0.46469000  1.0
  N  N869  1  0.71431000  0.09412000  0.49836000  1.0
  N  N870  1  0.20992000  0.84340000  0.50213000  1.0
  N  N871  1  0.24254000  0.87622000  0.47046000  1.0
  N  N872  1  0.87375000  0.42120000  0.79658000  1.0
  N  N873  1  0.93381000  0.44154000  0.80552000  1.0
  N  N874  1  0.53374000  0.43939000  0.15168000  1.0
  N  N875  1  0.59151000  0.42574000  0.16814000  1.0
  N  N876  1  0.03037000  0.52926000  0.14046000  1.0
  N  N877  1  0.06687000  0.51082000  0.17277000  1.0
  N  N878  1  0.39808000  0.51093000  0.80085000  1.0
  N  N879  1  0.43620000  0.52842000  0.83258000  1.0
  N  N880  1  0.88119000  0.92537000  0.29388000  1.0
  N  N881  1  0.94014000  0.94366000  0.30647000  1.0
  N  N882  1  0.58763000  0.92184000  0.66149000  1.0
  N  N883  1  0.53159000  0.94019000  0.64461000  1.0
  N  N884  1  0.06100000  0.00693000  0.67602000  1.0
  N  N885  1  0.02543000  0.02667000  0.64358000  1.0
  N  N886  1  0.44391000  0.02963000  0.32833000  1.0
  N  N887  1  0.40561000  0.01252000  0.29661000  1.0
  Cl  Cl888  1  0.59081000  0.49792000  0.80955000  1.0
  Cl  Cl889  1  0.73722000  0.68000000  0.85438000  1.0
  Cl  Cl890  1  0.87415000  0.50144000  0.15854000  1.0
  Cl  Cl891  1  0.73335000  0.68351000  0.10805000  1.0
  Cl  Cl892  1  0.35492000  0.47221000  0.16800000  1.0
  Cl  Cl893  1  0.25262000  0.27637000  0.11331000  1.0
  Cl  Cl894  1  0.11065000  0.47041000  0.78685000  1.0
  Cl  Cl895  1  0.20130000  0.28611000  0.86601000  1.0
  Cl  Cl896  1  0.59915000  0.00188000  0.30594000  1.0
  Cl  Cl897  1  0.74285000  0.18293000  0.35569000  1.0
  Cl  Cl898  1  0.87036000  0.99807000  0.65920000  1.0
  Cl  Cl899  1  0.72927000  0.18055000  0.60911000  1.0
  Cl  Cl900  1  0.35027000  0.97484000  0.66038000  1.0
  Cl  Cl901  1  0.25114000  0.77420000  0.60957000  1.0
  Cl  Cl902  1  0.11765000  0.97334000  0.28982000  1.0
  Cl  Cl903  1  0.21118000  0.78923000  0.36615000  1.0
