# generated using pymatgen
data_Zn5H81C135N18O29
_symmetry_space_group_name_H-M   'P 1'
_cell_length_a   34.55610000
_cell_length_b   35.48295331
_cell_length_c   37.52570000
_cell_angle_alpha   87.00028966
_cell_angle_beta   86.92500000
_cell_angle_gamma   62.21087818
_symmetry_Int_Tables_number   1
_chemical_formula_structural   Zn5H81C135N18O29
_chemical_formula_sum   'Zn15 H243 C405 N54 O87'
_cell_volume   40627.56328232
_cell_formula_units_Z   3
loop_
 _symmetry_equiv_pos_site_id
 _symmetry_equiv_pos_as_xyz
  1  'x, y, z'
loop_
 _atom_site_type_symbol
 _atom_site_label
 _atom_site_symmetry_multiplicity
 _atom_site_fract_x
 _atom_site_fract_y
 _atom_site_fract_z
 _atom_site_occupancy
  Zn  Zn0  1  0.05212000  0.98688000  0.93457000  1.0
  Zn  Zn1  1  0.99447000  0.03245000  0.88379000  1.0
  Zn  Zn2  1  0.00906000  0.08966000  0.99234000  1.0
  Zn  Zn3  1  0.99697000  0.04840000  0.05112000  1.0
  Zn  Zn4  1  0.97237000  0.04188000  0.96888000  1.0
  Zn  Zn5  1  0.69240000  0.67646000  0.59050000  1.0
  Zn  Zn6  1  0.61876000  0.72563000  0.55703000  1.0
  Zn  Zn7  1  0.66650000  0.74518000  0.67720000  1.0
  Zn  Zn8  1  0.65392000  0.68769000  0.71924000  1.0
  Zn  Zn9  1  0.61798000  0.71572000  0.63972000  1.0
  Zn  Zn10  1  0.36183000  0.34955000  0.24694000  1.0
  Zn  Zn11  1  0.29556000  0.39506000  0.20245000  1.0
  Zn  Zn12  1  0.32960000  0.43864000  0.31541000  1.0
  Zn  Zn13  1  0.31116000  0.39530000  0.36889000  1.0
  Zn  Zn14  1  0.28495000  0.39688000  0.28836000  1.0
  H  H15  1  0.42445000  0.07211000  0.84952000  1.0
  H  H16  1  0.52380000  0.01583000  0.90375000  1.0
  H  H17  1  0.57120000  0.93906000  0.90179000  1.0
  H  H18  1  0.48645000  0.92865000  0.82682000  1.0
  H  H19  1  0.43776000  0.00543000  0.83010000  1.0
  H  H20  1  0.48238000  0.09483000  0.98607000  1.0
  H  H21  1  0.42094000  0.05086000  0.03957000  1.0
  H  H22  1  0.44420000  0.15931000  0.01973000  1.0
  H  H23  1  0.38497000  0.07925000  0.09697000  1.0
  H  H24  1  0.40973000  0.18757000  0.07756000  1.0
  H  H25  1  0.30290000  0.15004000  0.91747000  1.0
  H  H26  1  0.28817000  0.08968000  0.90932000  1.0
  H  H27  1  0.25821000  0.04479000  0.93840000  1.0
  H  H28  1  0.28044000  0.07828000  0.04158000  1.0
  H  H29  1  0.30955000  0.12363000  0.01234000  1.0
  H  H30  1  0.87415000  0.71302000  0.94298000  1.0
  H  H31  1  0.96922000  0.66656000  0.87813000  1.0
  H  H32  1  0.96549000  0.63666000  0.82201000  1.0
  H  H33  1  0.82939000  0.67179000  0.84594000  1.0
  H  H34  1  0.83342000  0.70103000  0.90213000  1.0
  H  H35  1  0.97290000  0.56056000  0.00488000  1.0
  H  H36  1  0.92273000  0.63520000  0.07578000  1.0
  H  H37  1  0.04298000  0.53372000  0.03487000  1.0
  H  H38  1  0.95511000  0.62571000  0.13432000  1.0
  H  H39  1  0.07551000  0.52319000  0.09304000  1.0
  H  H40  1  0.06194000  0.65460000  0.94465000  1.0
  H  H41  1  0.02596000  0.73205000  0.93914000  1.0
  H  H42  1  0.99794000  0.79975000  0.96922000  1.0
  H  H43  1  0.01672000  0.73288000  0.07158000  1.0
  H  H44  1  0.04475000  0.66508000  0.04105000  1.0
  H  H45  1  0.63749000  0.36772000  0.02189000  1.0
  H  H46  1  0.59558000  0.46738000  0.05362000  1.0
  H  H47  1  0.53654000  0.49766000  0.09903000  1.0
  H  H48  1  0.49943000  0.39972000  0.07981000  1.0
  H  H49  1  0.55984000  0.36885000  0.03614000  1.0
  H  H50  1  0.50839000  0.50324000  0.93752000  1.0
  H  H51  1  0.49654000  0.45521000  0.86016000  1.0
  H  H52  1  0.56058000  0.52170000  0.90172000  1.0
  H  H53  1  0.51433000  0.47124000  0.79917000  1.0
  H  H54  1  0.57729000  0.53954000  0.84112000  1.0
  H  H55  1  0.60674000  0.30477000  0.92452000  1.0
  H  H56  1  0.67909000  0.27822000  0.95297000  1.0
  H  H57  1  0.75654000  0.25684000  0.94178000  1.0
  H  H58  1  0.72748000  0.32041000  0.83778000  1.0
  H  H59  1  0.64942000  0.34320000  0.85015000  1.0
  H  H60  1  0.09309000  0.63133000  0.59842000  1.0
  H  H61  1  0.18188000  0.66273000  0.58313000  1.0
  H  H62  1  0.21828000  0.65869000  0.52469000  1.0
  H  H63  1  0.13526000  0.61426000  0.47949000  1.0
  H  H64  1  0.09852000  0.61860000  0.53790000  1.0
  H  H65  1  0.13802000  0.76046000  0.66464000  1.0
  H  H66  1  0.10405000  0.69463000  0.72607000  1.0
  H  H67  1  0.11354000  0.81117000  0.70938000  1.0
  H  H68  1  0.07262000  0.71626000  0.78589000  1.0
  H  H69  1  0.08452000  0.83215000  0.76967000  1.0
  H  H70  1  0.98236000  0.78464000  0.60391000  1.0
  H  H71  1  0.94577000  0.74392000  0.59342000  1.0
  H  H72  1  0.90808000  0.70404000  0.61785000  1.0
  H  H73  1  0.94631000  0.71183000  0.72382000  1.0
  H  H74  1  0.98316000  0.75278000  0.69922000  1.0
  H  H75  1  0.56167000  0.34366000  0.60085000  1.0
  H  H76  1  0.63387000  0.26713000  0.53260000  1.0
  H  H77  1  0.62304000  0.28148000  0.46846000  1.0
  H  H78  1  0.50529000  0.39804000  0.48992000  1.0
  H  H79  1  0.51667000  0.38439000  0.55409000  1.0
  H  H80  1  0.67523000  0.20192000  0.66293000  1.0
  H  H81  1  0.66115000  0.26731000  0.70695000  1.0
  H  H82  1  0.78318000  0.16342000  0.67157000  1.0
  H  H83  1  0.69623000  0.27330000  0.76014000  1.0
  H  H84  1  0.81843000  0.16875000  0.72476000  1.0
  H  H85  1  0.75071000  0.30302000  0.59434000  1.0
  H  H86  1  0.72189000  0.32640000  0.66182000  1.0
  H  H87  1  0.69246000  0.39085000  0.69706000  1.0
  H  H88  1  0.65097000  0.46851000  0.60021000  1.0
  H  H89  1  0.67974000  0.40379000  0.56534000  1.0
  H  H90  1  0.16063000  0.04250000  0.61748000  1.0
  H  H91  1  0.17079000  0.99620000  0.66619000  1.0
  H  H92  1  0.19276000  0.97461000  0.72791000  1.0
  H  H93  1  0.22191000  0.07961000  0.73465000  1.0
  H  H94  1  0.19867000  0.10227000  0.67348000  1.0
  H  H95  1  0.24093000  0.16431000  0.59652000  1.0
  H  H96  1  0.15872000  0.17781000  0.53077000  1.0
  H  H97  1  0.27802000  0.18284000  0.55009000  1.0
  H  H98  1  0.16165000  0.20111000  0.46867000  1.0
  H  H99  1  0.28037000  0.20792000  0.48892000  1.0
  H  H100  1  0.28519000  0.99055000  0.54519000  1.0
  H  H101  1  0.35372000  0.03559000  0.52084000  1.0
  H  H102  1  0.42381000  0.01647000  0.54819000  1.0
  H  H103  1  0.38895000  0.95373000  0.63632000  1.0
  H  H104  1  0.31940000  0.97210000  0.60831000  1.0
  H  H105  1  0.76404000  0.30545000  0.26984000  1.0
  H  H106  1  0.83924000  0.34767000  0.23427000  1.0
  H  H107  1  0.86812000  0.33797000  0.17252000  1.0
  H  H108  1  0.79870000  0.26731000  0.15235000  1.0
  H  H109  1  0.76963000  0.27714000  0.21411000  1.0
  H  H110  1  0.81065000  0.41129000  0.33824000  1.0
  H  H111  1  0.75994000  0.38841000  0.38332000  1.0
  H  H112  1  0.74146000  0.51450000  0.35396000  1.0
  H  H113  1  0.71839000  0.41487000  0.43953000  1.0
  H  H114  1  0.70008000  0.54143000  0.41015000  1.0
  H  H115  1  0.64267000  0.48421000  0.27103000  1.0
  H  H116  1  0.60953000  0.43757000  0.29708000  1.0
  H  H117  1  0.57093000  0.39841000  0.28022000  1.0
  H  H118  1  0.62225000  0.39314000  0.17193000  1.0
  H  H119  1  0.66081000  0.43216000  0.18927000  1.0
  H  H120  1  0.21539000  0.03281000  0.28201000  1.0
  H  H121  1  0.29102000  0.97230000  0.20709000  1.0
  H  H122  1  0.28109000  0.99919000  0.14503000  1.0
  H  H123  1  0.16082000  0.10829000  0.17614000  1.0
  H  H124  1  0.17160000  0.08278000  0.23857000  1.0
  H  H125  1  0.36867000  0.86961000  0.32330000  1.0
  H  H126  1  0.42220000  0.87425000  0.36004000  1.0
  H  H127  1  0.28473000  0.93220000  0.38920000  1.0
  H  H128  1  0.43915000  0.88045000  0.42135000  1.0
  H  H129  1  0.30139000  0.93894000  0.45081000  1.0
  H  H130  1  0.38512000  0.00034000  0.24758000  1.0
  H  H131  1  0.34476000  0.07616000  0.24153000  1.0
  H  H132  1  0.31293000  0.14556000  0.26972000  1.0
  H  H133  1  0.34568000  0.08201000  0.37332000  1.0
  H  H134  1  0.37861000  0.01267000  0.34484000  1.0
  H  H135  1  0.94454000  0.72500000  0.36186000  1.0
  H  H136  1  0.87534000  0.83647000  0.37625000  1.0
  H  H137  1  0.80875000  0.86343000  0.41427000  1.0
  H  H138  1  0.81683000  0.73779000  0.41951000  1.0
  H  H139  1  0.88398000  0.71129000  0.38236000  1.0
  H  H140  1  0.86016000  0.86479000  0.26177000  1.0
  H  H141  1  0.88099000  0.80690000  0.17994000  1.0
  H  H142  1  0.92866000  0.86845000  0.24891000  1.0
  H  H143  1  0.93827000  0.79906000  0.13498000  1.0
  H  H144  1  0.98466000  0.86274000  0.20301000  1.0
  H  H145  1  0.92512000  0.66365000  0.26184000  1.0
  H  H146  1  0.99785000  0.64807000  0.29019000  1.0
  H  H147  1  0.07452000  0.62699000  0.27513000  1.0
  H  H148  1  0.04194000  0.66733000  0.16526000  1.0
  H  H149  1  0.96416000  0.69161000  0.18144000  1.0
  H  H150  1  0.11380000  0.09446000  0.95404000  1.0
  H  H151  1  0.17983000  0.09519000  0.97268000  1.0
  H  H152  1  0.22411000  0.96899000  0.02051000  1.0
  H  H153  1  0.15764000  0.96853000  0.00208000  1.0
  H  H154  1  0.06417000  0.87480000  0.98245000  1.0
  H  H155  1  0.05736000  0.81327000  0.00757000  1.0
  H  H156  1  0.92510000  0.89622000  0.04421000  1.0
  H  H157  1  0.93183000  0.95786000  0.01931000  1.0
  H  H158  1  0.93142000  0.20030000  0.93263000  1.0
  H  H159  1  0.87392000  0.26248000  0.90276000  1.0
  H  H160  1  0.79767000  0.19524000  0.89731000  1.0
  H  H161  1  0.85437000  0.13359000  0.92784000  1.0
  H  H162  1  0.76309000  0.76451000  0.64597000  1.0
  H  H163  1  0.83223000  0.75445000  0.66878000  1.0
  H  H164  1  0.87858000  0.61843000  0.67581000  1.0
  H  H165  1  0.80958000  0.62834000  0.65228000  1.0
  H  H166  1  0.58012000  0.62064000  0.66119000  1.0
  H  H167  1  0.58174000  0.55280000  0.67898000  1.0
  H  H168  1  0.71446000  0.48542000  0.63724000  1.0
  H  H169  1  0.71315000  0.55323000  0.61925000  1.0
  H  H170  1  0.50359000  0.82488000  0.61658000  1.0
  H  H171  1  0.45113000  0.89658000  0.59892000  1.0
  H  H172  1  0.52712000  0.94617000  0.64918000  1.0
  H  H173  1  0.58066000  0.87381000  0.66554000  1.0
  H  H174  1  0.47701000  0.31490000  0.25576000  1.0
  H  H175  1  0.54705000  0.30629000  0.23037000  1.0
  H  H176  1  0.50069000  0.44197000  0.23466000  1.0
  H  H177  1  0.43061000  0.45080000  0.26011000  1.0
  H  H178  1  0.37802000  0.23033000  0.28705000  1.0
  H  H179  1  0.37386000  0.16582000  0.30777000  1.0
  H  H180  1  0.23923000  0.24219000  0.34234000  1.0
  H  H181  1  0.24312000  0.30657000  0.32172000  1.0
  H  H182  1  0.25241000  0.55087000  0.25161000  1.0
  H  H183  1  0.19529000  0.61338000  0.22134000  1.0
  H  H184  1  0.10711000  0.55847000  0.23728000  1.0
  H  H185  1  0.16293000  0.49736000  0.26804000  1.0
  H  H186  1  0.84119000  0.08330000  0.81969000  1.0
  H  H187  1  0.78542000  0.14571000  0.78880000  1.0
  H  H188  1  0.85147000  0.21838000  0.81306000  1.0
  H  H189  1  0.90721000  0.15607000  0.84412000  1.0
  H  H190  1  0.16941000  0.97261000  0.87958000  1.0
  H  H191  1  0.22683000  0.97443000  0.83949000  1.0
  H  H192  1  0.12857000  0.05529000  0.76486000  1.0
  H  H193  1  0.07201000  0.05284000  0.80412000  1.0
  H  H194  1  0.99119000  0.93567000  0.82424000  1.0
  H  H195  1  0.00471000  0.86911000  0.79698000  1.0
  H  H196  1  0.09280000  0.79700000  0.88068000  1.0
  H  H197  1  0.07956000  0.86311000  0.90801000  1.0
  H  H198  1  0.10484000  0.11915000  0.03318000  1.0
  H  H199  1  0.16770000  0.11814000  0.06097000  1.0
  H  H200  1  0.17070000  0.02098000  0.13686000  1.0
  H  H201  1  0.10907000  0.02115000  0.10867000  1.0
  H  H202  1  0.08100000  0.88064000  0.07352000  1.0
  H  H203  1  0.07211000  0.82183000  0.10210000  1.0
  H  H204  1  0.94075000  0.91009000  0.13729000  1.0
  H  H205  1  0.94983000  0.96884000  0.10893000  1.0
  H  H206  1  0.92111000  0.14776000  0.11947000  1.0
  H  H207  1  0.88253000  0.21481000  0.14981000  1.0
  H  H208  1  0.87343000  0.28344000  0.04925000  1.0
  H  H209  1  0.91378000  0.21599000  0.01929000  1.0
  H  H210  1  0.47600000  0.76477000  0.48839000  1.0
  H  H211  1  0.41012000  0.82560000  0.46697000  1.0
  H  H212  1  0.43856000  0.90984000  0.52700000  1.0
  H  H213  1  0.50547000  0.84855000  0.54793000  1.0
  H  H214  1  0.77755000  0.71468000  0.52665000  1.0
  H  H215  1  0.80884000  0.75377000  0.48985000  1.0
  H  H216  1  0.68509000  0.82676000  0.43944000  1.0
  H  H217  1  0.65393000  0.78806000  0.47541000  1.0
  H  H218  1  0.73856000  0.57746000  0.50922000  1.0
  H  H219  1  0.74518000  0.51672000  0.47616000  1.0
  H  H220  1  0.60648000  0.55992000  0.49216000  1.0
  H  H221  1  0.59959000  0.62085000  0.52442000  1.0
  H  H222  1  0.76853000  0.73819000  0.74554000  1.0
  H  H223  1  0.83795000  0.71414000  0.77540000  1.0
  H  H224  1  0.86017000  0.58410000  0.77366000  1.0
  H  H225  1  0.79024000  0.60808000  0.74485000  1.0
  H  H226  1  0.68188000  0.53426000  0.77654000  1.0
  H  H227  1  0.64130000  0.49389000  0.79098000  1.0
  H  H228  1  0.52612000  0.59561000  0.74460000  1.0
  H  H229  1  0.56602000  0.63625000  0.73043000  1.0
  H  H230  1  0.60087000  0.85492000  0.74414000  1.0
  H  H231  1  0.57483000  0.90215000  0.79510000  1.0
  H  H232  1  0.57075000  0.80086000  0.86144000  1.0
  H  H233  1  0.59597000  0.75412000  0.81090000  1.0
  H  H234  1  0.18074000  0.53774000  0.13349000  1.0
  H  H235  1  0.10209000  0.58007000  0.12463000  1.0
  H  H236  1  0.07686000  0.49596000  0.19817000  1.0
  H  H237  1  0.15543000  0.45305000  0.20687000  1.0
  H  H238  1  0.46152000  0.35836000  0.17608000  1.0
  H  H239  1  0.50563000  0.39124000  0.15011000  1.0
  H  H240  1  0.38773000  0.50415000  0.12140000  1.0
  H  H241  1  0.34367000  0.47185000  0.14757000  1.0
  H  H242  1  0.31161000  0.29810000  0.13156000  1.0
  H  H243  1  0.32543000  0.23155000  0.10391000  1.0
  H  H244  1  0.41383000  0.15924000  0.18733000  1.0
  H  H245  1  0.40086000  0.22533000  0.21469000  1.0
  H  H246  1  0.41892000  0.35342000  0.43673000  1.0
  H  H247  1  0.48938000  0.33258000  0.46266000  1.0
  H  H248  1  0.52434000  0.39434000  0.37372000  1.0
  H  H249  1  0.45380000  0.41498000  0.34753000  1.0
  H  H250  1  0.34847000  0.23255000  0.40539000  1.0
  H  H251  1  0.31019000  0.19149000  0.42554000  1.0
  H  H252  1  0.18644000  0.30556000  0.41984000  1.0
  H  H253  1  0.22405000  0.34681000  0.39995000  1.0
  H  H254  1  0.24557000  0.48916000  0.44393000  1.0
  H  H255  1  0.21576000  0.55099000  0.48121000  1.0
  H  H256  1  0.22807000  0.62739000  0.39201000  1.0
  H  H257  1  0.25958000  0.56477000  0.35509000  1.0
  C  C258  1  0.06488000  0.06952000  0.05135000  1.0
  C  C259  1  0.91367000  0.07628000  0.85152000  1.0
  C  C260  1  0.93162000  0.12472000  0.95150000  1.0
  C  C261  1  0.94876000  0.13577000  0.04956000  1.0
  C  C262  1  0.08106000  0.01145000  0.86858000  1.0
  C  C263  1  0.02164000  0.96513000  0.07157000  1.0
  C  C264  1  0.09000000  0.03150000  0.96589000  1.0
  C  C265  1  0.00168000  0.95824000  0.98198000  1.0
  C  C266  1  0.02840000  0.94461000  0.88386000  1.0
  C  C267  1  0.73136000  0.68938000  0.72673000  1.0
  C  C268  1  0.53837000  0.76566000  0.52869000  1.0
  C  C269  1  0.58075000  0.79973000  0.64936000  1.0
  C  C270  1  0.62077000  0.77024000  0.74422000  1.0
  C  C271  1  0.69198000  0.72877000  0.52853000  1.0
  C  C272  1  0.65066000  0.61380000  0.74462000  1.0
  C  C273  1  0.73914000  0.70357000  0.63341000  1.0
  C  C274  1  0.64647000  0.63365000  0.63024000  1.0
  C  C275  1  0.66397000  0.64074000  0.53934000  1.0
  C  C276  1  0.38856000  0.39713000  0.37375000  1.0
  C  C277  1  0.22200000  0.46560000  0.17556000  1.0
  C  C278  1  0.24652000  0.48047000  0.27950000  1.0
  C  C279  1  0.27734000  0.48322000  0.37514000  1.0
  C  C280  1  0.37214000  0.39559000  0.18346000  1.0
  C  C281  1  0.31164000  0.31830000  0.38897000  1.0
  C  C282  1  0.40532000  0.38895000  0.27464000  1.0
  C  C283  1  0.31333000  0.31303000  0.29107000  1.0
  C  C284  1  0.34571000  0.30676000  0.19304000  1.0
  C  C285  1  0.53255000  0.92798000  0.86407000  1.0
  C  C286  1  0.49481000  0.94742000  0.84374000  1.0
  C  C287  1  0.46676000  0.99120000  0.84592000  1.0
  C  C288  1  0.43274000  0.08920000  0.96368000  1.0
  C  C289  1  0.43542000  0.10279000  0.02564000  1.0
  C  C290  1  0.41789000  0.08103000  0.04761000  1.0
  C  C291  1  0.39741000  0.09740000  0.08041000  1.0
  C  C292  1  0.39437000  0.13580000  0.09223000  1.0
  C  C293  1  0.41094000  0.15820000  0.06953000  1.0
  C  C294  1  0.43092000  0.14200000  0.03643000  1.0
  C  C295  1  0.36353000  0.11479000  0.93853000  1.0
  C  C296  1  0.30039000  0.11037000  0.95881000  1.0
  C  C297  1  0.28623000  0.08749000  0.93819000  1.0
  C  C298  1  0.26902000  0.06209000  0.95480000  1.0
  C  C299  1  0.26604000  0.05895000  0.99227000  1.0
  C  C300  1  0.28169000  0.08070000  0.01272000  1.0
  C  C301  1  0.29832000  0.10651000  0.99613000  1.0
  C  C302  1  0.42765000  0.07631000  0.90334000  1.0
  C  C303  1  0.51458000  0.99706000  0.88767000  1.0
  C  C304  1  0.47594000  0.01645000  0.86836000  1.0
  C  C305  1  0.54209000  0.95323000  0.88606000  1.0
  C  C306  1  0.89714000  0.65201000  0.82944000  1.0
  C  C307  1  0.86011000  0.67054000  0.85253000  1.0
  C  C308  1  0.86248000  0.68693000  0.88491000  1.0
  C  C309  1  0.96617000  0.62015000  0.99428000  1.0
  C  C310  1  0.98035000  0.58494000  0.05131000  1.0
  C  C311  1  0.95619000  0.61102000  0.07952000  1.0
  C  C312  1  0.97478000  0.60548000  0.11284000  1.0
  C  C313  1  0.01801000  0.57382000  0.11847000  1.0
  C  C314  1  0.04243000  0.54834000  0.08974000  1.0
  C  C315  1  0.02381000  0.55400000  0.05648000  1.0
  C  C316  1  0.01035000  0.64979000  0.96935000  1.0
  C  C317  1  0.03796000  0.69362000  0.98798000  1.0
  C  C318  1  0.02503000  0.73196000  0.96804000  1.0
  C  C319  1  0.00911000  0.77054000  0.98528000  1.0
  C  C320  1  0.00572000  0.77146000  0.02278000  1.0
  C  C321  1  0.01927000  0.73299000  0.04267000  1.0
  C  C322  1  0.03549000  0.69436000  0.02538000  1.0
  C  C323  1  0.93888000  0.67421000  0.94934000  1.0
  C  C324  1  0.93874000  0.66731000  0.87162000  1.0
  C  C325  1  0.90193000  0.68502000  0.89513000  1.0
  C  C326  1  0.93648000  0.65051000  0.83937000  1.0
  C  C327  1  0.51335000  0.45096000  0.09357000  1.0
  C  C328  1  0.52056000  0.41446000  0.07527000  1.0
  C  C329  1  0.55479000  0.39696000  0.04988000  1.0
  C  C330  1  0.55066000  0.43915000  0.93440000  1.0
  C  C331  1  0.52703000  0.48750000  0.88518000  1.0
  C  C332  1  0.51449000  0.47332000  0.85593000  1.0
  C  C333  1  0.52480000  0.48250000  0.82117000  1.0
  C  C334  1  0.54762000  0.50644000  0.81491000  1.0
  C  C335  1  0.56035000  0.52046000  0.84453000  1.0
  C  C336  1  0.55053000  0.51067000  0.87932000  1.0
  C  C337  1  0.59698000  0.36546000  0.92969000  1.0
  C  C338  1  0.65883000  0.31165000  0.90206000  1.0
  C  C339  1  0.68964000  0.28691000  0.92757000  1.0
  C  C340  1  0.73396000  0.27444000  0.92093000  1.0
  C  C341  1  0.74856000  0.28545000  0.88821000  1.0
  C  C342  1  0.71746000  0.31055000  0.86287000  1.0
  C  C343  1  0.67299000  0.32349000  0.86976000  1.0
  C  C344  1  0.59871000  0.40081000  0.98059000  1.0
  C  C345  1  0.57482000  0.45243000  0.05967000  1.0
  C  C346  1  0.58162000  0.41636000  0.04148000  1.0
  C  C347  1  0.54112000  0.46954000  0.08556000  1.0
  C  C348  1  0.18006000  0.63545000  0.49780000  1.0
  C  C349  1  0.14562000  0.62489000  0.50196000  1.0
  C  C350  1  0.12437000  0.62779000  0.53527000  1.0
  C  C351  1  0.10455000  0.72794000  0.65596000  1.0
  C  C352  1  0.11026000  0.75165000  0.71283000  1.0
  C  C353  1  0.09886000  0.72514000  0.73519000  1.0
  C  C354  1  0.08099000  0.73762000  0.76950000  1.0
  C  C355  1  0.07508000  0.77645000  0.78278000  1.0
  C  C356  1  0.08716000  0.80267000  0.76043000  1.0
  C  C357  1  0.10417000  0.79055000  0.72582000  1.0
  C  C358  1  0.03655000  0.74580000  0.63156000  1.0
  C  C359  1  0.96698000  0.75150000  0.64459000  1.0
  C  C360  1  0.94553000  0.73752000  0.62194000  1.0
  C  C361  1  0.92399000  0.71484000  0.63593000  1.0
  C  C362  1  0.92411000  0.70517000  0.67275000  1.0
  C  C363  1  0.94575000  0.71896000  0.69537000  1.0
  C  C364  1  0.96659000  0.74237000  0.68144000  1.0
  C  C365  1  0.09861000  0.68161000  0.61630000  1.0
  C  C366  1  0.17086000  0.65286000  0.56063000  1.0
  C  C367  1  0.13666000  0.64186000  0.56503000  1.0
  C  C368  1  0.19193000  0.65018000  0.52727000  1.0
  C  C369  1  0.56322000  0.34067000  0.47441000  1.0
  C  C370  1  0.53363000  0.36956000  0.49902000  1.0
  C  C371  1  0.54032000  0.36193000  0.53564000  1.0
  C  C372  1  0.68261000  0.24792000  0.63211000  1.0
  C  C373  1  0.71991000  0.21507000  0.68531000  1.0
  C  C374  1  0.69553000  0.24592000  0.71069000  1.0
  C  C375  1  0.71554000  0.24921000  0.74098000  1.0
  C  C376  1  0.75984000  0.22107000  0.74679000  1.0
  C  C377  1  0.78403000  0.19031000  0.72132000  1.0
  C  C378  1  0.76415000  0.18742000  0.69086000  1.0
  C  C379  1  0.69177000  0.30201000  0.59945000  1.0
  C  C380  1  0.70253000  0.36062000  0.61102000  1.0
  C  C381  1  0.70657000  0.35736000  0.64829000  1.0
  C  C382  1  0.68979000  0.39411000  0.66830000  1.0
  C  C383  1  0.66970000  0.43463000  0.65134000  1.0
  C  C384  1  0.66681000  0.43772000  0.61396000  1.0
  C  C385  1  0.68296000  0.40093000  0.59403000  1.0
  C  C386  1  0.62518000  0.29902000  0.59783000  1.0
  C  C387  1  0.60621000  0.29627000  0.52365000  1.0
  C  C388  1  0.57675000  0.32534000  0.54847000  1.0
  C  C389  1  0.59989000  0.30430000  0.48699000  1.0
  C  C390  1  0.20923000  0.02539000  0.73560000  1.0
  C  C391  1  0.21172000  0.06075000  0.71954000  1.0
  C  C392  1  0.19846000  0.07360000  0.68452000  1.0
  C  C393  1  0.22067000  0.12198000  0.58281000  1.0
  C  C394  1  0.21836000  0.17818000  0.54487000  1.0
  C  C395  1  0.18555000  0.18394000  0.52150000  1.0
  C  C396  1  0.18741000  0.19714000  0.48605000  1.0
  C  C397  1  0.22147000  0.20604000  0.47344000  1.0
  C  C398  1  0.25382000  0.20108000  0.49721000  1.0
  C  C399  1  0.25251000  0.18683000  0.53242000  1.0
  C  C400  1  0.25675000  0.05030000  0.56591000  1.0
  C  C401  1  0.33194000  0.00487000  0.56243000  1.0
  C  C402  1  0.36154000  0.01742000  0.54588000  1.0
  C  C403  1  0.40123000  0.00666000  0.56154000  1.0
  C  C404  1  0.41192000  0.98300000  0.59394000  1.0
  C  C405  1  0.38182000  0.97111000  0.61089000  1.0
  C  C406  1  0.34224000  0.98162000  0.59507000  1.0
  C  C407  1  0.19658000  0.07364000  0.60675000  1.0
  C  C408  1  0.18252000  0.01429000  0.68062000  1.0
  C  C409  1  0.18374000  0.05044000  0.66454000  1.0
  C  C410  1  0.19512000  0.00190000  0.71580000  1.0
  C  C411  1  0.83616000  0.30132000  0.15793000  1.0
  C  C412  1  0.80791000  0.28468000  0.17010000  1.0
  C  C413  1  0.79102000  0.29063000  0.20527000  1.0
  C  C414  1  0.75912000  0.41833000  0.30863000  1.0
  C  C415  1  0.75310000  0.44979000  0.36438000  1.0
  C  C416  1  0.74666000  0.42186000  0.38901000  1.0
  C  C417  1  0.72317000  0.43702000  0.42112000  1.0
  C  C418  1  0.70641000  0.48016000  0.42955000  1.0
  C  C419  1  0.71321000  0.50790000  0.40485000  1.0
  C  C420  1  0.73636000  0.49275000  0.37258000  1.0
  C  C421  1  0.70194000  0.43014000  0.27068000  1.0
  C  C422  1  0.63751000  0.43801000  0.24420000  1.0
  C  C423  1  0.61189000  0.42835000  0.26967000  1.0
  C  C424  1  0.58976000  0.40621000  0.25992000  1.0
  C  C425  1  0.59308000  0.39326000  0.22458000  1.0
  C  C426  1  0.61893000  0.40290000  0.19928000  1.0
  C  C427  1  0.64080000  0.42522000  0.20903000  1.0
  C  C428  1  0.76330000  0.36208000  0.27511000  1.0
  C  C429  1  0.82988000  0.33042000  0.21654000  1.0
  C  C430  1  0.80155000  0.31385000  0.22885000  1.0
  C  C431  1  0.84656000  0.32464000  0.18135000  1.0
  C  C432  1  0.22052000  0.05583000  0.15630000  1.0
  C  C433  1  0.18990000  0.07918000  0.18295000  1.0
  C  C434  1  0.19613000  0.06466000  0.21850000  1.0
  C  C435  1  0.33084000  0.93310000  0.31317000  1.0
  C  C436  1  0.35228000  0.90215000  0.37043000  1.0
  C  C437  1  0.39573000  0.88850000  0.37970000  1.0
  C  C438  1  0.40529000  0.89198000  0.41466000  1.0
  C  C439  1  0.37155000  0.90945000  0.44086000  1.0
  C  C440  1  0.32793000  0.92512000  0.43111000  1.0
  C  C441  1  0.31841000  0.92121000  0.39614000  1.0
  C  C442  1  0.34923000  0.98261000  0.28280000  1.0
  C  C443  1  0.36409000  0.03937000  0.29119000  1.0
  C  C444  1  0.34579000  0.07725000  0.27023000  1.0
  C  C445  1  0.32778000  0.11678000  0.28631000  1.0
  C  C446  1  0.32713000  0.11896000  0.32363000  1.0
  C  C447  1  0.34592000  0.08107000  0.34448000  1.0
  C  C448  1  0.36473000  0.04160000  0.32835000  1.0
  C  C449  1  0.27906000  0.98813000  0.27747000  1.0
  C  C450  1  0.26330000  0.00278000  0.20095000  1.0
  C  C451  1  0.23278000  0.02628000  0.22801000  1.0
  C  C452  1  0.25760000  0.01793000  0.16549000  1.0
  C  C453  1  0.80760000  0.80271000  0.42051000  1.0
  C  C454  1  0.82944000  0.75968000  0.41097000  1.0
  C  C455  1  0.86764000  0.74448000  0.38942000  1.0
  C  C456  1  0.88686000  0.79942000  0.26451000  1.0
  C  C457  1  0.90055000  0.83835000  0.21761000  1.0
  C  C458  1  0.90340000  0.81931000  0.18506000  1.0
  C  C459  1  0.93599000  0.81486000  0.15950000  1.0
  C  C460  1  0.96533000  0.83072000  0.16556000  1.0
  C  C461  1  0.96197000  0.85071000  0.19774000  1.0
  C  C462  1  0.93011000  0.85403000  0.22382000  1.0
  C  C463  1  0.91507000  0.72483000  0.26534000  1.0
  C  C464  1  0.97551000  0.67110000  0.23679000  1.0
  C  C465  1  0.00725000  0.65236000  0.26289000  1.0
  C  C466  1  0.05110000  0.64001000  0.25412000  1.0
  C  C467  1  0.06447000  0.64434000  0.21874000  1.0
  C  C468  1  0.03261000  0.66332000  0.19267000  1.0
  C  C469  1  0.98839000  0.67681000  0.20173000  1.0
  C  C470  1  0.91319000  0.75928000  0.31794000  1.0
  C  C471  1  0.86268000  0.81491000  0.38585000  1.0
  C  C472  1  0.88430000  0.77213000  0.37653000  1.0
  C  C473  1  0.82477000  0.83008000  0.40764000  1.0
  C  C474  1  0.13058000  0.03143000  0.97657000  1.0
  C  C475  1  0.13780000  0.06675000  0.96830000  1.0
  C  C476  1  0.17595000  0.06693000  0.97862000  1.0
  C  C477  1  0.20777000  0.03173000  0.99748000  1.0
  C  C478  1  0.20042000  0.99644000  0.00577000  1.0
  C  C479  1  0.16241000  0.99614000  0.99517000  1.0
  C  C480  1  0.24747000  0.03244000  0.01028000  1.0
  C  C481  1  0.99838000  0.92115000  0.99857000  1.0
  C  C482  1  0.03365000  0.87995000  0.99590000  1.0
  C  C483  1  0.02966000  0.84468000  0.01001000  1.0
  C  C484  1  0.99032000  0.84996000  0.02707000  1.0
  C  C485  1  0.95560000  0.89124000  0.03078000  1.0
  C  C486  1  0.95944000  0.92647000  0.01643000  1.0
  C  C487  1  0.98520000  0.81264000  0.04114000  1.0
  C  C488  1  0.89723000  0.16220000  0.93300000  1.0
  C  C489  1  0.90227000  0.19887000  0.92524000  1.0
  C  C490  1  0.86942000  0.23444000  0.90811000  1.0
  C  C491  1  0.83083000  0.23413000  0.89863000  1.0
  C  C492  1  0.82629000  0.19705000  0.90558000  1.0
  C  C493  1  0.85898000  0.16160000  0.92283000  1.0
  C  C494  1  0.79582000  0.27234000  0.88091000  1.0
  C  C495  1  0.78113000  0.69719000  0.64707000  1.0
  C  C496  1  0.78811000  0.73245000  0.65218000  1.0
  C  C497  1  0.82770000  0.72671000  0.66506000  1.0
  C  C498  1  0.86083000  0.68562000  0.67355000  1.0
  C  C499  1  0.85360000  0.65039000  0.66914000  1.0
  C  C500  1  0.81430000  0.65606000  0.65554000  1.0
  C  C501  1  0.90275000  0.67962000  0.68738000  1.0
  C  C502  1  0.64673000  0.59242000  0.63923000  1.0
  C  C503  1  0.60967000  0.59144000  0.65567000  1.0
  C  C504  1  0.61056000  0.55268000  0.66598000  1.0
  C  C505  1  0.64825000  0.51411000  0.65970000  1.0
  C  C506  1  0.68488000  0.51483000  0.64223000  1.0
  C  C507  1  0.68417000  0.55365000  0.63215000  1.0
  C  C508  1  0.64973000  0.47341000  0.67296000  1.0
  C  C509  1  0.54644000  0.84366000  0.64214000  1.0
  C  C510  1  0.50878000  0.85115000  0.62425000  1.0
  C  C511  1  0.47839000  0.89258000  0.61434000  1.0
  C  C512  1  0.48438000  0.92767000  0.62289000  1.0
  C  C513  1  0.52138000  0.92005000  0.64203000  1.0
  C  C514  1  0.55213000  0.87855000  0.65141000  1.0
  C  C515  1  0.45418000  0.97187000  0.61014000  1.0
  C  C516  1  0.44816000  0.38356000  0.25994000  1.0
  C  C517  1  0.48178000  0.34290000  0.25154000  1.0
  C  C518  1  0.52189000  0.33792000  0.23699000  1.0
  C  C519  1  0.52948000  0.37335000  0.23105000  1.0
  C  C520  1  0.49605000  0.41398000  0.23969000  1.0
  C  C521  1  0.45580000  0.41903000  0.25401000  1.0
  C  C522  1  0.57158000  0.36785000  0.21424000  1.0
  C  C523  1  0.31104000  0.27368000  0.30303000  1.0
  C  C524  1  0.34749000  0.23338000  0.29898000  1.0
  C  C525  1  0.34504000  0.19641000  0.31058000  1.0
  C  C526  1  0.30616000  0.19909000  0.32658000  1.0
  C  C527  1  0.26963000  0.23926000  0.33018000  1.0
  C  C528  1  0.27194000  0.27611000  0.31835000  1.0
  C  C529  1  0.30396000  0.16045000  0.34118000  1.0
  C  C530  1  0.21211000  0.51932000  0.26252000  1.0
  C  C531  1  0.22059000  0.55253000  0.24900000  1.0
  C  C532  1  0.18803000  0.58815000  0.23151000  1.0
  C  C533  1  0.14640000  0.59129000  0.22752000  1.0
  C  C534  1  0.13830000  0.55781000  0.24080000  1.0
  C  C535  1  0.17056000  0.52250000  0.25831000  1.0
  C  C536  1  0.11159000  0.62910000  0.20909000  1.0
  C  C537  1  0.87862000  0.11470000  0.83439000  1.0
  C  C538  1  0.84383000  0.11258000  0.81846000  1.0
  C  C539  1  0.81205000  0.14823000  0.80054000  1.0
  C  C540  1  0.81451000  0.18673000  0.79802000  1.0
  C  C541  1  0.84888000  0.18906000  0.81443000  1.0
  C  C542  1  0.88075000  0.15337000  0.83225000  1.0
  C  C543  1  0.78095000  0.22476000  0.77893000  1.0
  C  C544  1  0.11621000  0.01223000  0.84487000  1.0
  C  C545  1  0.16026000  0.99047000  0.85445000  1.0
  C  C546  1  0.19309000  0.99161000  0.83158000  1.0
  C  C547  1  0.18246000  0.01428000  0.79867000  1.0
  C  C548  1  0.13825000  0.03652000  0.78951000  1.0
  C  C549  1  0.10563000  0.03539000  0.81224000  1.0
  C  C550  1  0.21706000  0.01555000  0.77410000  1.0
  C  C551  1  0.03458000  0.90468000  0.86813000  1.0
  C  C552  1  0.01342000  0.90562000  0.83683000  1.0
  C  C553  1  0.02139000  0.86765000  0.82105000  1.0
  C  C554  1  0.05065000  0.82813000  0.83630000  1.0
  C  C555  1  0.07070000  0.82716000  0.86812000  1.0
  C  C556  1  0.06306000  0.86500000  0.88372000  1.0
  C  C557  1  0.05897000  0.78745000  0.82054000  1.0
  C  C558  1  0.10210000  0.07006000  0.06858000  1.0
  C  C559  1  0.11910000  0.09745000  0.05570000  1.0
  C  C560  1  0.15500000  0.09698000  0.07165000  1.0
  C  C561  1  0.17390000  0.06984000  0.10131000  1.0
  C  C562  1  0.15658000  0.04275000  0.11435000  1.0
  C  C563  1  0.12123000  0.04277000  0.09811000  1.0
  C  C564  1  0.21183000  0.06940000  0.11852000  1.0
  C  C565  1  0.01624000  0.92947000  0.08915000  1.0
  C  C566  1  0.05037000  0.88755000  0.08765000  1.0
  C  C567  1  0.04526000  0.85381000  0.10404000  1.0
  C  C568  1  0.00603000  0.86119000  0.12257000  1.0
  C  C569  1  0.97182000  0.90319000  0.12399000  1.0
  C  C570  1  0.97690000  0.93693000  0.10749000  1.0
  C  C571  1  0.00052000  0.82469000  0.13876000  1.0
  C  C572  1  0.92052000  0.17658000  0.06699000  1.0
  C  C573  1  0.91019000  0.17720000  0.10376000  1.0
  C  C574  1  0.88773000  0.21587000  0.12117000  1.0
  C  C575  1  0.87411000  0.25494000  0.10203000  1.0
  C  C576  1  0.88329000  0.25409000  0.06495000  1.0
  C  C577  1  0.90641000  0.21543000  0.04769000  1.0
  C  C578  1  0.85336000  0.29658000  0.12040000  1.0
  C  C579  1  0.49571000  0.80195000  0.52000000  1.0
  C  C580  1  0.46803000  0.79619000  0.49732000  1.0
  C  C581  1  0.43044000  0.83104000  0.48490000  1.0
  C  C582  1  0.41980000  0.87249000  0.49477000  1.0
  C  C583  1  0.44618000  0.87817000  0.51893000  1.0
  C  C584  1  0.48411000  0.84315000  0.53120000  1.0
  C  C585  1  0.38216000  0.90966000  0.47860000  1.0
  C  C586  1  0.71323000  0.74824000  0.50405000  1.0
  C  C587  1  0.75732000  0.73850000  0.50724000  1.0
  C  C588  1  0.77526000  0.76073000  0.48620000  1.0
  C  C589  1  0.74930000  0.79301000  0.46175000  1.0
  C  C590  1  0.70573000  0.80194000  0.45804000  1.0
  C  C591  1  0.68798000  0.77965000  0.47869000  1.0
  C  C592  1  0.76572000  0.82025000  0.44200000  1.0
  C  C593  1  0.66854000  0.60397000  0.51929000  1.0
  C  C594  1  0.70949000  0.57406000  0.50546000  1.0
  C  C595  1  0.71324000  0.53955000  0.48634000  1.0
  C  C596  1  0.67621000  0.53401000  0.48129000  1.0
  C  C597  1  0.63546000  0.56365000  0.49547000  1.0
  C  C598  1  0.63155000  0.59852000  0.51389000  1.0
  C  C599  1  0.67995000  0.49614000  0.46318000  1.0
  C  C600  1  0.77387000  0.67501000  0.74332000  1.0
  C  C601  1  0.78821000  0.70451000  0.75164000  1.0
  C  C602  1  0.82769000  0.69086000  0.76877000  1.0
  C  C603  1  0.85385000  0.64740000  0.77709000  1.0
  C  C604  1  0.84028000  0.61779000  0.76766000  1.0
  C  C605  1  0.80032000  0.63152000  0.75138000  1.0
  C  C606  1  0.89533000  0.63276000  0.79573000  1.0
  C  C607  1  0.62718000  0.58839000  0.75227000  1.0
  C  C608  1  0.64790000  0.54802000  0.76947000  1.0
  C  C609  1  0.62479000  0.52501000  0.77782000  1.0
  C  C610  1  0.58065000  0.54212000  0.76919000  1.0
  C  C611  1  0.56010000  0.58208000  0.75167000  1.0
  C  C612  1  0.58305000  0.60515000  0.74349000  1.0
  C  C613  1  0.55579000  0.51820000  0.77755000  1.0
  C  C614  1  0.60079000  0.80067000  0.77350000  1.0
  C  C615  1  0.59377000  0.84302000  0.76949000  1.0
  C  C616  1  0.57860000  0.87013000  0.79857000  1.0
  C  C617  1  0.57076000  0.85513000  0.83223000  1.0
  C  C618  1  0.57658000  0.81326000  0.83584000  1.0
  C  C619  1  0.59098000  0.78651000  0.80680000  1.0
  C  C620  1  0.56063000  0.88109000  0.86455000  1.0
  C  C621  1  0.17439000  0.49183000  0.17071000  1.0
  C  C622  1  0.15852000  0.52809000  0.14767000  1.0
  C  C623  1  0.11362000  0.55230000  0.14254000  1.0
  C  C624  1  0.08383000  0.54081000  0.16047000  1.0
  C  C625  1  0.09944000  0.50516000  0.18396000  1.0
  C  C626  1  0.14434000  0.48064000  0.18881000  1.0
  C  C627  1  0.03632000  0.56586000  0.15478000  1.0
  C  C628  1  0.39921000  0.41254000  0.16394000  1.0
  C  C629  1  0.44512000  0.39005000  0.16400000  1.0
  C  C630  1  0.47030000  0.40870000  0.14904000  1.0
  C  C631  1  0.44989000  0.45005000  0.13364000  1.0
  C  C632  1  0.40411000  0.47218000  0.13305000  1.0
  C  C633  1  0.37899000  0.45351000  0.14777000  1.0
  C  C634  1  0.47576000  0.47136000  0.11948000  1.0
  C  C635  1  0.35525000  0.26694000  0.17524000  1.0
  C  C636  1  0.33435000  0.26799000  0.14376000  1.0
  C  C637  1  0.34241000  0.23007000  0.12781000  1.0
  C  C638  1  0.37114000  0.19052000  0.14331000  1.0
  C  C639  1  0.39198000  0.18946000  0.17470000  1.0
  C  C640  1  0.38455000  0.22725000  0.19029000  1.0
  C  C641  1  0.37660000  0.15010000  0.12905000  1.0
  C  C642  1  0.43065000  0.38605000  0.39018000  1.0
  C  C643  1  0.44148000  0.36285000  0.42282000  1.0
  C  C644  1  0.48178000  0.35119000  0.43784000  1.0
  C  C645  1  0.51224000  0.36239000  0.42051000  1.0
  C  C646  1  0.50144000  0.38550000  0.38781000  1.0
  C  C647  1  0.46097000  0.39744000  0.37290000  1.0
  C  C648  1  0.55604000  0.34833000  0.43553000  1.0
  C  C649  1  0.28934000  0.29298000  0.40137000  1.0
  C  C650  1  0.31315000  0.24893000  0.40873000  1.0
  C  C651  1  0.29140000  0.22547000  0.42027000  1.0
  C  C652  1  0.24563000  0.24578000  0.42464000  1.0
  C  C653  1  0.22184000  0.28952000  0.41697000  1.0
  C  C654  1  0.24345000  0.31299000  0.40563000  1.0
  C  C655  1  0.22176000  0.22168000  0.43591000  1.0
  C  C656  1  0.25497000  0.52202000  0.39653000  1.0
  C  C657  1  0.24130000  0.51931000  0.43211000  1.0
  C  C658  1  0.22383000  0.55503000  0.45349000  1.0
  C  C659  1  0.21868000  0.59467000  0.43959000  1.0
  C  C660  1  0.23140000  0.59748000  0.40366000  1.0
  C  C661  1  0.24945000  0.56160000  0.38244000  1.0
  C  C662  1  0.20310000  0.63248000  0.46265000  1.0
  N  N663  1  0.45210000  0.07240000  0.93185000  1.0
  N  N664  1  0.44835000  0.06202000  0.86882000  1.0
  N  N665  1  0.38830000  0.11042000  0.96684000  1.0
  N  N666  1  0.45985000  0.08360000  0.99341000  1.0
  N  N667  1  0.38324000  0.09788000  0.90679000  1.0
  N  N668  1  0.31680000  0.13770000  0.94224000  1.0
  N  N669  1  0.93332000  0.64637000  0.97271000  1.0
  N  N670  1  0.90345000  0.70367000  0.92800000  1.0
  N  N671  1  0.00482000  0.62172000  0.99228000  1.0
  N  N672  1  0.96035000  0.58968000  0.01758000  1.0
  N  N673  1  0.97723000  0.67613000  0.94800000  1.0
  N  N674  1  0.04915000  0.65458000  0.97057000  1.0
  N  N675  1  0.56732000  0.43811000  0.96667000  1.0
  N  N676  1  0.61624000  0.39946000  0.01480000  1.0
  N  N677  1  0.56534000  0.40259000  0.91619000  1.0
  N  N678  1  0.51574000  0.47797000  0.92070000  1.0
  N  N679  1  0.61341000  0.36463000  0.96198000  1.0
  N  N680  1  0.61288000  0.32741000  0.90982000  1.0
  N  N681  1  0.12304000  0.69115000  0.63781000  1.0
  N  N682  1  0.11744000  0.64084000  0.59999000  1.0
  N  N683  1  0.06133000  0.75538000  0.65252000  1.0
  N  N684  1  0.13107000  0.73767000  0.67817000  1.0
  N  N685  1  0.05521000  0.70881000  0.61355000  1.0
  N  N686  1  0.99049000  0.77364000  0.63025000  1.0
  N  N687  1  0.64137000  0.26409000  0.62004000  1.0
  N  N688  1  0.58099000  0.31621000  0.58648000  1.0
  N  N689  1  0.70787000  0.26676000  0.62146000  1.0
  N  N690  1  0.69990000  0.20998000  0.65458000  1.0
  N  N691  1  0.65027000  0.31828000  0.58784000  1.0
  N  N692  1  0.71754000  0.32334000  0.59011000  1.0
  N  N693  1  0.19260000  0.11355000  0.60417000  1.0
  N  N694  1  0.16662000  0.06524000  0.62938000  1.0
  N  N695  1  0.25307000  0.09017000  0.56393000  1.0
  N  N696  1  0.21651000  0.16413000  0.58131000  1.0
  N  N697  1  0.22855000  0.04206000  0.58746000  1.0
  N  N698  1  0.29107000  0.01687000  0.54614000  1.0
  N  N699  1  0.78066000  0.37692000  0.29901000  1.0
  N  N700  1  0.78590000  0.31815000  0.26567000  1.0
  N  N701  1  0.72003000  0.44491000  0.29409000  1.0
  N  N702  1  0.77902000  0.43458000  0.33206000  1.0
  N  N703  1  0.72412000  0.38877000  0.26087000  1.0
  N  N704  1  0.66182000  0.45932000  0.25397000  1.0
  N  N705  1  0.29034000  0.95345000  0.29960000  1.0
  N  N706  1  0.23560000  0.00932000  0.26418000  1.0
  N  N707  1  0.36037000  0.94761000  0.30461000  1.0
  N  N708  1  0.34243000  0.89560000  0.33530000  1.0
  N  N709  1  0.30846000  0.00299000  0.26930000  1.0
  N  N710  1  0.38005000  0.99860000  0.27523000  1.0
  N  N711  1  0.89514000  0.79750000  0.29980000  1.0
  N  N712  1  0.92377000  0.75686000  0.35473000  1.0
  N  N713  1  0.89683000  0.76297000  0.24751000  1.0
  N  N714  1  0.86909000  0.83936000  0.24477000  1.0
  N  N715  1  0.92351000  0.72304000  0.30049000  1.0
  N  N716  1  0.92995000  0.68645000  0.24613000  1.0
  O  O717  1  0.08940000  0.99469000  0.96337000  1.0
  O  O718  1  0.00406000  0.03309000  0.92927000  1.0
  O  O719  1  0.04979000  0.09210000  0.02149000  1.0
  O  O720  1  0.05603000  0.94284000  0.90763000  1.0
  O  O721  1  0.96583000  0.99502000  0.97888000  1.0
  O  O722  1  0.04748000  0.04608000  0.06597000  1.0
  O  O723  1  0.04046000  0.95375000  0.96995000  1.0
  O  O724  1  0.94405000  0.07928000  0.86903000  1.0
  O  O725  1  0.99661000  0.98152000  0.87314000  1.0
  O  O726  1  0.91677000  0.03856000  0.84669000  1.0
  O  O727  1  0.05529000  0.06825000  0.95837000  1.0
  O  O728  1  0.00041000  0.04695000  0.00444000  1.0
  O  O729  1  0.09080000  0.98815000  0.89852000  1.0
  O  O730  1  0.97166000  0.13568000  0.02016000  1.0
  O  O731  1  0.92448000  0.09208000  0.96110000  1.0
  O  O732  1  0.04018000  0.03416000  0.85927000  1.0
  O  O733  1  0.96946000  0.12399000  0.95774000  1.0
  O  O734  1  0.98907000  0.00411000  0.07159000  1.0
  O  O735  1  0.95338000  0.09980000  0.06503000  1.0
  O  O736  1  0.05922000  0.95824000  0.05593000  1.0
  O  O737  1  0.73713000  0.67153000  0.61857000  1.0
  O  O738  1  0.64201000  0.72023000  0.59882000  1.0
  O  O739  1  0.71500000  0.72475000  0.70651000  1.0
  O  O740  1  0.69798000  0.63959000  0.55467000  1.0
  O  O741  1  0.61054000  0.66938000  0.63713000  1.0
  O  O742  1  0.71019000  0.66678000  0.73259000  1.0
  O  O743  1  0.68290000  0.63389000  0.61680000  1.0
  O  O744  1  0.56128000  0.76715000  0.55499000  1.0
  O  O745  1  0.62533000  0.67420000  0.54266000  1.0
  O  O746  1  0.55605000  0.73330000  0.50729000  1.0
  O  O747  1  0.70375000  0.74057000  0.63794000  1.0
  O  O748  1  0.65296000  0.70500000  0.67491000  1.0
  O  O749  1  0.71411000  0.70078000  0.55394000  1.0
  O  O750  1  0.64080000  0.77914000  0.71663000  1.0
  O  O751  1  0.57191000  0.76755000  0.64645000  1.0
  O  O752  1  0.64981000  0.74215000  0.52599000  1.0
  O  O753  1  0.62062000  0.79340000  0.65662000  1.0
  O  O754  1  0.63236000  0.64911000  0.72498000  1.0
  O  O755  1  0.62111000  0.73298000  0.74748000  1.0
  O  O756  1  0.68809000  0.60312000  0.75949000  1.0
  O  O757  1  0.39838000  0.35525000  0.27868000  1.0
  O  O758  1  0.31094000  0.39209000  0.24669000  1.0
  O  O759  1  0.37576000  0.42454000  0.34620000  1.0
  O  O760  1  0.37330000  0.30636000  0.21622000  1.0
  O  O761  1  0.27806000  0.35012000  0.29499000  1.0
  O  O762  1  0.36477000  0.37895000  0.38632000  1.0
  O  O763  1  0.35058000  0.31037000  0.27658000  1.0
  O  O764  1  0.23665000  0.43174000  0.19718000  1.0
  O  O765  1  0.30920000  0.34182000  0.18642000  1.0
  O  O766  1  0.24994000  0.47523000  0.15743000  1.0
  O  O767  1  0.37367000  0.42775000  0.28113000  1.0
  O  O768  1  0.31747000  0.39698000  0.32222000  1.0
  O  O769  1  0.38954000  0.36622000  0.20921000  1.0
  O  O770  1  0.30120000  0.48311000  0.34649000  1.0
  O  O771  1  0.23830000  0.44806000  0.28693000  1.0
  O  O772  1  0.33007000  0.41313000  0.17740000  1.0
  O  O773  1  0.28570000  0.47750000  0.28473000  1.0
  O  O774  1  0.28834000  0.35959000  0.38348000  1.0
  O  O775  1  0.27551000  0.44830000  0.38626000  1.0
  O  O776  1  0.35429000  0.30011000  0.38341000  1.0
  O  O777  1  0.26506000  0.01105000  0.03684000  1.0
  O  O778  1  0.96228000  0.81628000  0.06800000  1.0
  O  O779  1  0.80625000  0.29386000  0.85995000  1.0
  O  O780  1  0.92028000  0.65284000  0.71107000  1.0
  O  O781  1  0.63370000  0.47191000  0.70250000  1.0
  O  O782  1  0.46507000  0.99991000  0.61192000  1.0
  O  O783  1  0.58919000  0.34141000  0.19119000  1.0
  O  O784  1  0.28193000  0.16292000  0.36838000  1.0
  O  O785  1  0.12193000  0.64795000  0.18536000  1.0
  O  O786  1  0.77065000  0.26017000  0.78979000  1.0
  O  O787  1  0.25195000  0.00940000  0.78572000  1.0
  O  O788  1  0.05380000  0.76131000  0.84000000  1.0
  O  O789  1  0.23629000  0.08022000  0.10146000  1.0
  O  O790  1  0.02515000  0.78852000  0.12930000  1.0
  O  O791  1  0.85139000  0.32826000  0.10430000  1.0
  O  O792  1  0.35964000  0.94066000  0.49652000  1.0
  O  O793  1  0.74299000  0.85889000  0.44280000  1.0
  O  O794  1  0.66000000  0.47773000  0.47634000  1.0
  O  O795  1  0.92860000  0.60351000  0.78338000  1.0
  O  O796  1  0.54015000  0.50939000  0.75280000  1.0
  O  O797  1  0.57624000  0.86301000  0.89282000  1.0
  O  O798  1  0.01157000  0.57904000  0.18086000  1.0
  O  O799  1  0.46480000  0.50755000  0.12882000  1.0
  O  O800  1  0.36744000  0.12695000  0.14913000  1.0
  O  O801  1  0.58719000  0.34231000  0.41532000  1.0
  O  O802  1  0.19947000  0.21703000  0.41405000  1.0
  O  O803  1  0.21048000  0.66196000  0.45275000  1.0
