# generated using pymatgen
data_La2H84C117I9(NO2)9
_symmetry_space_group_name_H-M   'P 1'
_cell_length_a   44.87290000
_cell_length_b   45.13460000
_cell_length_c   47.33860000
_cell_angle_alpha   94.68100000
_cell_angle_beta   91.76200000
_cell_angle_gamma   93.01000000
_symmetry_Int_Tables_number   1
_chemical_formula_structural   La2H84C117I9(NO2)9
_chemical_formula_sum   'La8 H336 C468 I36 N36 O72'
_cell_volume   95365.07604677
_cell_formula_units_Z   4
loop_
 _symmetry_equiv_pos_site_id
 _symmetry_equiv_pos_as_xyz
  1  'x, y, z'
loop_
 _atom_site_type_symbol
 _atom_site_label
 _atom_site_symmetry_multiplicity
 _atom_site_fract_x
 _atom_site_fract_y
 _atom_site_fract_z
 _atom_site_occupancy
  La  La0  1  0.97153000  0.98780000  0.97355000  1.0
  La  La1  1  0.01840000  0.97071000  0.01992000  1.0
  La  La2  1  0.46182000  0.50787000  0.00320000  1.0
  La  La3  1  0.50732000  0.48178000  0.96270000  1.0
  La  La4  1  0.01303000  0.46935000  0.48875000  1.0
  La  La5  1  0.96408000  0.51084000  0.47180000  1.0
  La  La6  1  0.50497000  0.02148000  0.46168000  1.0
  La  La7  1  0.48895000  0.98120000  0.50877000  1.0
  H  H8  1  0.11532000  0.09923000  0.99546000  1.0
  H  H9  1  0.08377000  0.05750000  0.00937000  1.0
  H  H10  1  0.03735000  0.05163000  0.92760000  1.0
  H  H11  1  0.11071000  0.15131000  0.98613000  1.0
  H  H12  1  0.13865000  0.19516000  0.97195000  1.0
  H  H13  1  0.06835000  0.09345000  0.91404000  1.0
  H  H14  1  0.14550000  0.15181000  0.88778000  1.0
  H  H15  1  0.17966000  0.24117000  0.87709000  1.0
  H  H16  1  0.20195000  0.24654000  0.90806000  1.0
  H  H17  1  0.11872000  0.10772000  0.90229000  1.0
  H  H18  1  0.18666000  0.18245000  0.89043000  1.0
  H  H19  1  0.57684000  0.40858000  0.84018000  1.0
  H  H20  1  0.54419000  0.42016000  0.87906000  1.0
  H  H21  1  0.60651000  0.49138000  0.91260000  1.0
  H  H22  1  0.62376000  0.38905000  0.82758000  1.0
  H  H23  1  0.64770000  0.37964000  0.78277000  1.0
  H  H24  1  0.63984000  0.47933000  0.87382000  1.0
  H  H25  1  0.66511000  0.47427000  0.77870000  1.0
  H  H26  1  0.66680000  0.38331000  0.69703000  1.0
  H  H27  1  0.69836000  0.40830000  0.70004000  1.0
  H  H28  1  0.63978000  0.48369000  0.82299000  1.0
  H  H29  1  0.68495000  0.37864000  0.75294000  1.0
  H  H30  1  0.07805000  0.32384000  0.48852000  1.0
  H  H31  1  0.05356000  0.36653000  0.47189000  1.0
  H  H32  1  0.09744000  0.42339000  0.54011000  1.0
  H  H33  1  0.07082000  0.29574000  0.52934000  1.0
  H  H34  1  0.08689000  0.25341000  0.55296000  1.0
  H  H35  1  0.12144000  0.38065000  0.55717000  1.0
  H  H36  1  0.17319000  0.29890000  0.57231000  1.0
  H  H37  1  0.14716000  0.23211000  0.64060000  1.0
  H  H38  1  0.15369000  0.20494000  0.61357000  1.0
  H  H39  1  0.15682000  0.34152000  0.54870000  1.0
  H  H40  1  0.17133000  0.27042000  0.60841000  1.0
  H  H41  1  0.59361000  0.03735000  0.59804000  1.0
  H  H42  1  0.55100000  0.02656000  0.56418000  1.0
  H  H43  1  0.60947000  0.03996000  0.49507000  1.0
  H  H44  1  0.62942000  0.07679000  0.61835000  1.0
  H  H45  1  0.67464000  0.09076000  0.64802000  1.0
  H  H46  1  0.65110000  0.05171000  0.52829000  1.0
  H  H47  1  0.72716000  0.04208000  0.58726000  1.0
  H  H48  1  0.79426000  0.06721000  0.63570000  1.0
  H  H49  1  0.80215000  0.09891000  0.61826000  1.0
  H  H50  1  0.68243000  0.02710000  0.55840000  1.0
  H  H51  1  0.75429000  0.09022000  0.60033000  1.0
  H  H52  1  0.37385000  0.40348000  0.90655000  1.0
  H  H53  1  0.40923000  0.44468000  0.92324000  1.0
  H  H54  1  0.44012000  0.39421000  0.99069000  1.0
  H  H55  1  0.33156000  0.37174000  0.90999000  1.0
  H  H56  1  0.30385000  0.32717000  0.88802000  1.0
  H  H57  1  0.40350000  0.35396000  0.97568000  1.0
  H  H58  1  0.37136000  0.27245000  0.91932000  1.0
  H  H59  1  0.32596000  0.20665000  0.87632000  1.0
  H  H60  1  0.30523000  0.19866000  0.90551000  1.0
  H  H61  1  0.39978000  0.31643000  0.93987000  1.0
  H  H62  1  0.32495000  0.24462000  0.92342000  1.0
  H  H63  1  0.91344000  0.39209000  0.57731000  1.0
  H  H64  1  0.94490000  0.41080000  0.54097000  1.0
  H  H65  1  0.91174000  0.49840000  0.55814000  1.0
  H  H66  1  0.85949000  0.38263000  0.58613000  1.0
  H  H67  1  0.83216000  0.36194000  0.62430000  1.0
  H  H68  1  0.88011000  0.47950000  0.59448000  1.0
  H  H69  1  0.85981000  0.43954000  0.68029000  1.0
  H  H70  1  0.80275000  0.32863000  0.69593000  1.0
  H  H71  1  0.79846000  0.36101000  0.71870000  1.0
  H  H72  1  0.88765000  0.45998000  0.64214000  1.0
  H  H73  1  0.79347000  0.36451000  0.65487000  1.0
  H  H74  1  0.36857000  0.09276000  0.50133000  1.0
  H  H75  1  0.40785000  0.06270000  0.48287000  1.0
  H  H76  1  0.45435000  0.07347000  0.56440000  1.0
  H  H77  1  0.35111000  0.13740000  0.51590000  1.0
  H  H78  1  0.30553000  0.15835000  0.53330000  1.0
  H  H79  1  0.41619000  0.10570000  0.58270000  1.0
  H  H80  1  0.32465000  0.12881000  0.61587000  1.0
  H  H81  1  0.23448000  0.14984000  0.61531000  1.0
  H  H82  1  0.25660000  0.15401000  0.64634000  1.0
  H  H83  1  0.36880000  0.10563000  0.59830000  1.0
  H  H84  1  0.29798000  0.17767000  0.62222000  1.0
  H  H85  1  0.85159000  0.05045000  0.89391000  1.0
  H  H86  1  0.88116000  0.03290000  0.93256000  1.0
  H  H87  1  0.92685000  0.97587000  0.87252000  1.0
  H  H88  1  0.81426000  0.04107000  0.85566000  1.0
  H  H89  1  0.79333000  0.06951000  0.81856000  1.0
  H  H90  1  0.89657000  0.99268000  0.83383000  1.0
  H  H91  1  0.87714000  0.06714000  0.77616000  1.0
  H  H92  1  0.84439000  0.13337000  0.74373000  1.0
  H  H93  1  0.85482000  0.10962000  0.71516000  1.0
  H  H94  1  0.89771000  0.03915000  0.81262000  1.0
  H  H95  1  0.84459000  0.06957000  0.73961000  1.0
  H  H96  1  0.14180000  0.93673000  0.11833000  1.0
  H  H97  1  0.11551000  0.95127000  0.07587000  1.0
  H  H98  1  0.03449000  0.95732000  0.12226000  1.0
  H  H99  1  0.14647000  0.89700000  0.14778000  1.0
  H  H100  1  0.16668000  0.87681000  0.19047000  1.0
  H  H101  1  0.05981000  0.94144000  0.16373000  1.0
  H  H102  1  0.11268000  0.93400000  0.24232000  1.0
  H  H103  1  0.13182000  0.89408000  0.30366000  1.0
  H  H104  1  0.11188000  0.86004000  0.29754000  1.0
  H  H105  1  0.09389000  0.95565000  0.20037000  1.0
  H  H106  1  0.10649000  0.87619000  0.25320000  1.0
  H  H107  1  0.56821000  0.62337000  0.05806000  1.0
  H  H108  1  0.52277000  0.59655000  0.03903000  1.0
  H  H109  1  0.57471000  0.53206000  0.99339000  1.0
  H  H110  1  0.60888000  0.65395000  0.05278000  1.0
  H  H111  1  0.65356000  0.67858000  0.07653000  1.0
  H  H112  1  0.62053000  0.56012000  0.01031000  1.0
  H  H113  1  0.69742000  0.59585000  0.06997000  1.0
  H  H114  1  0.77107000  0.64528000  0.09941000  1.0
  H  H115  1  0.77695000  0.66832000  0.07224000  1.0
  H  H116  1  0.65223000  0.57027000  0.04847000  1.0
  H  H117  1  0.73278000  0.64250000  0.05603000  1.0
  H  H118  1  0.04109000  0.57889000  0.36495000  1.0
  H  H119  1  0.01621000  0.56356000  0.40672000  1.0
  H  H120  1  0.07825000  0.49423000  0.41382000  1.0
  H  H121  1  0.04449000  0.55354000  0.31539000  1.0
  H  H122  1  0.06584000  0.56498000  0.27047000  1.0
  H  H123  1  0.10321000  0.50984000  0.37184000  1.0
  H  H124  1  0.15445000  0.56561000  0.30881000  1.0
  H  H125  1  0.16923000  0.56857000  0.22065000  1.0
  H  H126  1  0.14930000  0.59970000  0.21413000  1.0
  H  H127  1  0.13302000  0.55419000  0.35380000  1.0
  H  H128  1  0.15944000  0.60090000  0.27506000  1.0
  H  H129  1  0.59971000  0.91887000  0.39091000  1.0
  H  H130  1  0.55961000  0.94963000  0.40733000  1.0
  H  H131  1  0.57282000  0.92200000  0.49189000  1.0
  H  H132  1  0.61248000  0.86643000  0.38290000  1.0
  H  H133  1  0.65465000  0.83873000  0.36635000  1.0
  H  H134  1  0.61266000  0.89105000  0.47533000  1.0
  H  H135  1  0.70577000  0.87109000  0.44244000  1.0
  H  H136  1  0.74370000  0.80824000  0.35235000  1.0
  H  H137  1  0.74729000  0.79066000  0.38376000  1.0
  H  H138  1  0.66380000  0.89940000  0.45866000  1.0
  H  H139  1  0.68416000  0.79987000  0.37314000  1.0
  H  H140  1  0.34212000  0.49601000  0.10571000  1.0
  H  H141  1  0.37427000  0.48459000  0.06586000  1.0
  H  H142  1  0.41090000  0.57538000  0.07409000  1.0
  H  H143  1  0.29904000  0.52722000  0.11915000  1.0
  H  H144  1  0.26931000  0.53807000  0.16065000  1.0
  H  H145  1  0.37883000  0.58678000  0.11374000  1.0
  H  H146  1  0.34712000  0.58210000  0.20506000  1.0
  H  H147  1  0.27181000  0.57669000  0.26623000  1.0
  H  H148  1  0.28946000  0.61191000  0.27169000  1.0
  H  H149  1  0.37635000  0.57181000  0.16345000  1.0
  H  H150  1  0.31180000  0.60572000  0.22779000  1.0
  H  H151  1  0.81321000  0.56198000  0.45342000  1.0
  H  H152  1  0.85598000  0.53737000  0.47142000  1.0
  H  H153  1  0.91556000  0.59969000  0.43347000  1.0
  H  H154  1  0.78945000  0.56501000  0.40772000  1.0
  H  H155  1  0.74527000  0.58572000  0.38793000  1.0
  H  H156  1  0.87261000  0.62405000  0.41472000  1.0
  H  H157  1  0.78562000  0.67445000  0.40633000  1.0
  H  H158  1  0.69092000  0.66540000  0.35196000  1.0
  H  H159  1  0.69326000  0.68783000  0.38395000  1.0
  H  H160  1  0.82989000  0.65367000  0.42648000  1.0
  H  H161  1  0.75397000  0.68101000  0.36834000  1.0
  H  H162  1  0.40563000  0.92072000  0.38256000  1.0
  H  H163  1  0.44724000  0.94176000  0.41378000  1.0
  H  H164  1  0.38642000  0.99388000  0.46299000  1.0
  H  H165  1  0.36635000  0.92437000  0.34795000  1.0
  H  H166  1  0.32360000  0.89579000  0.32369000  1.0
  H  H167  1  0.34517000  0.97451000  0.43108000  1.0
  H  H168  1  0.27605000  0.90147000  0.40161000  1.0
  H  H169  1  0.22845000  0.84279000  0.36904000  1.0
  H  H170  1  0.20193000  0.86959000  0.37124000  1.0
  H  H171  1  0.31829000  0.92877000  0.42580000  1.0
  H  H172  1  0.23897000  0.90429000  0.36630000  1.0
  H  H173  1  0.91626000  0.86926000  0.08034000  1.0
  H  H174  1  0.95288000  0.90481000  0.06395000  1.0
  H  H175  1  0.90123000  0.90665000  0.98561000  1.0
  H  H176  1  0.89678000  0.81845000  0.07211000  1.0
  H  H177  1  0.85958000  0.78760000  0.09434000  1.0
  H  H178  1  0.86473000  0.87037000  0.00189000  1.0
  H  H179  1  0.78952000  0.83725000  0.05952000  1.0
  H  H180  1  0.74087000  0.79331000  0.11700000  1.0
  H  H181  1  0.72653000  0.77059000  0.08776000  1.0
  H  H182  1  0.82669000  0.86828000  0.03755000  1.0
  H  H183  1  0.76505000  0.79203000  0.06427000  1.0
  H  H184  1  0.94690000  0.11800000  0.06806000  1.0
  H  H185  1  0.96317000  0.08665000  0.02793000  1.0
  H  H186  1  0.96845000  0.01303000  0.08022000  1.0
  H  H187  1  0.95907000  0.14390000  0.11296000  1.0
  H  H188  1  0.93348000  0.17495000  0.14813000  1.0
  H  H189  1  0.95294000  0.04475000  0.12094000  1.0
  H  H190  1  0.88288000  0.09711000  0.17127000  1.0
  H  H191  1  0.82905000  0.14809000  0.19858000  1.0
  H  H192  1  0.84070000  0.14236000  0.23303000  1.0
  H  H193  1  0.90797000  0.06634000  0.13610000  1.0
  H  H194  1  0.88303000  0.12768000  0.21221000  1.0
  H  H195  1  0.58299000  0.40493000  0.06971000  1.0
  H  H196  1  0.56301000  0.43123000  0.03095000  1.0
  H  H197  1  0.48284000  0.44580000  0.07719000  1.0
  H  H198  1  0.57629000  0.35958000  0.09448000  1.0
  H  H199  1  0.59908000  0.33707000  0.13436000  1.0
  H  H200  1  0.50267000  0.41917000  0.11568000  1.0
  H  H201  1  0.56417000  0.40460000  0.19224000  1.0
  H  H202  1  0.64001000  0.32761000  0.21995000  1.0
  H  H203  1  0.60554000  0.31958000  0.23475000  1.0
  H  H204  1  0.54215000  0.42751000  0.15236000  1.0
  H  H205  1  0.59486000  0.31209000  0.17424000  1.0
  H  H206  1  0.04767000  0.56479000  0.61617000  1.0
  H  H207  1  0.03174000  0.52265000  0.58339000  1.0
  H  H208  1  0.00990000  0.58175000  0.51958000  1.0
  H  H209  1  0.03462000  0.60491000  0.64583000  1.0
  H  H210  1  0.05923000  0.64373000  0.67857000  1.0
  H  H211  1  0.02455000  0.62462000  0.55314000  1.0
  H  H212  1  0.09042000  0.68968000  0.60782000  1.0
  H  H213  1  0.14332000  0.73292000  0.65778000  1.0
  H  H214  1  0.12066000  0.76279000  0.66242000  1.0
  H  H215  1  0.06709000  0.65040000  0.57501000  1.0
  H  H216  1  0.08458000  0.72829000  0.64407000  1.0
  H  H217  1  0.52727000  0.15553000  0.38373000  1.0
  H  H218  1  0.51519000  0.12237000  0.42064000  1.0
  H  H219  1  0.52386000  0.04614000  0.36085000  1.0
  H  H220  1  0.50393000  0.16908000  0.33785000  1.0
  H  H221  1  0.51303000  0.19980000  0.29853000  1.0
  H  H222  1  0.53606000  0.07924000  0.32400000  1.0
  H  H223  1  0.58647000  0.14660000  0.27352000  1.0
  H  H224  1  0.58494000  0.18583000  0.20185000  1.0
  H  H225  1  0.56089000  0.21453000  0.20823000  1.0
  H  H226  1  0.57746000  0.11601000  0.31297000  1.0
  H  H227  1  0.59959000  0.19225000  0.25562000  1.0
  H  H228  1  0.03876000  0.84330000  0.91647000  1.0
  H  H229  1  0.02950000  0.87300000  0.96057000  1.0
  H  H230  1  0.01516000  0.94915000  0.91337000  1.0
  H  H231  1  0.07724000  0.84032000  0.88121000  1.0
  H  H232  1  0.09389000  0.81755000  0.83650000  1.0
  H  H233  1  0.02481000  0.91975000  0.86944000  1.0
  H  H234  1  0.02218000  0.85627000  0.79186000  1.0
  H  H235  1  0.11054000  0.81912000  0.74209000  1.0
  H  H236  1  0.13530000  0.81618000  0.77084000  1.0
  H  H237  1  0.00543000  0.87891000  0.83668000  1.0
  H  H238  1  0.09164000  0.78805000  0.79431000  1.0
  H  H239  1  0.93776000  0.39952000  0.35019000  1.0
  H  H240  1  0.95162000  0.44635000  0.37823000  1.0
  H  H241  1  0.95955000  0.39914000  0.45351000  1.0
  H  H242  1  0.89650000  0.36362000  0.34323000  1.0
  H  H243  1  0.87561000  0.31672000  0.31997000  1.0
  H  H244  1  0.94489000  0.35253000  0.42586000  1.0
  H  H245  1  0.93782000  0.26902000  0.36794000  1.0
  H  H246  1  0.85868000  0.21147000  0.30934000  1.0
  H  H247  1  0.83160000  0.23772000  0.30950000  1.0
  H  H248  1  0.95921000  0.31596000  0.39081000  1.0
  H  H249  1  0.87763000  0.27239000  0.29145000  1.0
  H  H250  1  0.46910000  0.83553000  0.56482000  1.0
  H  H251  1  0.48493000  0.87601000  0.53690000  1.0
  H  H252  1  0.45852000  0.93998000  0.60289000  1.0
  H  H253  1  0.42174000  0.81390000  0.57796000  1.0
  H  H254  1  0.40433000  0.77128000  0.60223000  1.0
  H  H255  1  0.44198000  0.89913000  0.63091000  1.0
  H  H256  1  0.44074000  0.81412000  0.68167000  1.0
  H  H257  1  0.37903000  0.72110000  0.68362000  1.0
  H  H258  1  0.41373000  0.72212000  0.70132000  1.0
  H  H259  1  0.45828000  0.85698000  0.65718000  1.0
  H  H260  1  0.40499000  0.78295000  0.69784000  1.0
  H  H261  1  0.40042000  0.60675000  0.91040000  1.0
  H  H262  1  0.41187000  0.56677000  0.93989000  1.0
  H  H263  1  0.49209000  0.55203000  0.89381000  1.0
  H  H264  1  0.38646000  0.62139000  0.86356000  1.0
  H  H265  1  0.37826000  0.66779000  0.84199000  1.0
  H  H266  1  0.48026000  0.59156000  0.86394000  1.0
  H  H267  1  0.47300000  0.69064000  0.84903000  1.0
  H  H268  1  0.38152000  0.76000000  0.82415000  1.0
  H  H269  1  0.41438000  0.76092000  0.80549000  1.0
  H  H270  1  0.48104000  0.64496000  0.87119000  1.0
  H  H271  1  0.38267000  0.70043000  0.80732000  1.0
  H  H272  1  0.30934000  0.79899000  0.76265000  1.0
  H  H273  1  0.30096000  0.78748000  0.72705000  1.0
  H  H274  1  0.25798000  0.80204000  0.77164000  1.0
  H  H275  1  0.24813000  0.78929000  0.73529000  1.0
  H  H276  1  0.26646000  0.73927000  0.71602000  1.0
  H  H277  1  0.28886000  0.71911000  0.73943000  1.0
  H  H278  1  0.18780000  0.69927000  0.74977000  1.0
  H  H279  1  0.18822000  0.72319000  0.78044000  1.0
  H  H280  1  0.23697000  0.69813000  0.73468000  1.0
  H  H281  1  0.24670000  0.71178000  0.77079000  1.0
  H  H282  1  0.22778000  0.76155000  0.78939000  1.0
  H  H283  1  0.20621000  0.78161000  0.76512000  1.0
  H  H284  1  0.80178000  0.27961000  0.21624000  1.0
  H  H285  1  0.81676000  0.26011000  0.18712000  1.0
  H  H286  1  0.75972000  0.23293000  0.23724000  1.0
  H  H287  1  0.74869000  0.26891000  0.22815000  1.0
  H  H288  1  0.75853000  0.28377000  0.17879000  1.0
  H  H289  1  0.77707000  0.25832000  0.15473000  1.0
  H  H290  1  0.67531000  0.24003000  0.15173000  1.0
  H  H291  1  0.68135000  0.20801000  0.16902000  1.0
  H  H292  1  0.72341000  0.25709000  0.14347000  1.0
  H  H293  1  0.73479000  0.22144000  0.15320000  1.0
  H  H294  1  0.72324000  0.20691000  0.20315000  1.0
  H  H295  1  0.70510000  0.23348000  0.22636000  1.0
  H  H296  1  0.67487000  0.71788000  0.27126000  1.0
  H  H297  1  0.68549000  0.75507000  0.26759000  1.0
  H  H298  1  0.68962000  0.69592000  0.22765000  1.0
  H  H299  1  0.69508000  0.73335000  0.21728000  1.0
  H  H300  1  0.73326000  0.76866000  0.24654000  1.0
  H  H301  1  0.75257000  0.75425000  0.27609000  1.0
  H  H302  1  0.79707000  0.73777000  0.18981000  1.0
  H  H303  1  0.78855000  0.70004000  0.19299000  1.0
  H  H304  1  0.78403000  0.75638000  0.23470000  1.0
  H  H305  1  0.77795000  0.71880000  0.24451000  1.0
  H  H306  1  0.74070000  0.68428000  0.21557000  1.0
  H  H307  1  0.72108000  0.69830000  0.18600000  1.0
  H  H308  1  0.17537000  0.76470000  0.32277000  1.0
  H  H309  1  0.14977000  0.76358000  0.29438000  1.0
  H  H310  1  0.20675000  0.72614000  0.31312000  1.0
  H  H311  1  0.17586000  0.71238000  0.28959000  1.0
  H  H312  1  0.16212000  0.74467000  0.24827000  1.0
  H  H313  1  0.18532000  0.77820000  0.24547000  1.0
  H  H314  1  0.21685000  0.68914000  0.20084000  1.0
  H  H315  1  0.24898000  0.69885000  0.22208000  1.0
  H  H316  1  0.19745000  0.73654000  0.21095000  1.0
  H  H317  1  0.22882000  0.74956000  0.23421000  1.0
  H  H318  1  0.24228000  0.72027000  0.27450000  1.0
  H  H319  1  0.22109000  0.68611000  0.27934000  1.0
  H  H320  1  0.81237000  0.20369000  0.69924000  1.0
  H  H321  1  0.79993000  0.20184000  0.66422000  1.0
  H  H322  1  0.78388000  0.23689000  0.72865000  1.0
  H  H323  1  0.78686000  0.25157000  0.69472000  1.0
  H  H324  1  0.75448000  0.21674000  0.65100000  1.0
  H  H325  1  0.73513000  0.18434000  0.66341000  1.0
  H  H326  1  0.68964000  0.27460000  0.66714000  1.0
  H  H327  1  0.68853000  0.27306000  0.70468000  1.0
  H  H328  1  0.70297000  0.22633000  0.65597000  1.0
  H  H329  1  0.70244000  0.21552000  0.69175000  1.0
  H  H330  1  0.72996000  0.24432000  0.72925000  1.0
  H  H331  1  0.75077000  0.27809000  0.72301000  1.0
  H  H332  1  0.25932000  0.17511000  0.79173000  1.0
  H  H333  1  0.22160000  0.17349000  0.79841000  1.0
  H  H334  1  0.27494000  0.24015000  0.79094000  1.0
  H  H335  1  0.28088000  0.21109000  0.76333000  1.0
  H  H336  1  0.23299000  0.17974000  0.74257000  1.0
  H  H337  1  0.19796000  0.18909000  0.75770000  1.0
  H  H338  1  0.23134000  0.27322000  0.70648000  1.0
  H  H339  1  0.26681000  0.26272000  0.69636000  1.0
  H  H340  1  0.20431000  0.20931000  0.71164000  1.0
  H  H341  1  0.20138000  0.23877000  0.73932000  1.0
  H  H342  1  0.24675000  0.26804000  0.75804000  1.0
  H  H343  1  0.28248000  0.25930000  0.74408000  1.0
  C  C344  1  0.05617000  0.96297000  0.07030000  1.0
  C  C345  1  0.03772000  0.02674000  0.97825000  1.0
  C  C346  1  0.01783000  0.93200000  0.96715000  1.0
  C  C347  1  0.92739000  0.99632000  0.92834000  1.0
  C  C348  1  0.95165000  0.93159000  0.01435000  1.0
  C  C349  1  0.97313000  0.02764000  0.02543000  1.0
  C  C350  1  0.55158000  0.46488000  0.92085000  1.0
  C  C351  1  0.46197000  0.53449000  0.93961000  1.0
  C  C352  1  0.45320000  0.44357000  0.96431000  1.0
  C  C353  1  0.41610000  0.52194000  0.04444000  1.0
  C  C354  1  0.50974000  0.45813000  0.02806000  1.0
  C  C355  1  0.51780000  0.54432000  0.00595000  1.0
  C  C356  1  0.91456000  0.54939000  0.46207000  1.0
  C  C357  1  0.95023000  0.46743000  0.52481000  1.0
  C  C358  1  0.96305000  0.45492000  0.43541000  1.0
  C  C359  1  0.05528000  0.42298000  0.49737000  1.0
  C  C360  1  0.02782000  0.51637000  0.43707000  1.0
  C  C361  1  0.01276000  0.52246000  0.52848000  1.0
  C  C362  1  0.48007000  0.93521000  0.54902000  1.0
  C  C363  1  0.54004000  0.95848000  0.46140000  1.0
  C  C364  1  0.44331000  0.97761000  0.46287000  1.0
  C  C365  1  0.51230000  0.06164000  0.41612000  1.0
  C  C366  1  0.45647000  0.04541000  0.51120000  1.0
  C  C367  1  0.55217000  0.02546000  0.50590000  1.0
  C  C368  1  0.37788000  0.74298000  0.72582000  1.0
  C  C369  1  0.34856000  0.75314000  0.72413000  1.0
  C  C370  1  0.33333333  0.76122000  0.74921000  1.0
  C  C371  1  0.34660000  0.75660000  0.77594000  1.0
  C  C372  1  0.37634000  0.74753000  0.77793000  1.0
  C  C373  1  0.39198000  0.74090000  0.75279000  1.0
  C  C374  1  0.84477000  0.18860000  0.22553000  1.0
  C  C375  1  0.82738000  0.20772000  0.21030000  1.0
  C  C376  1  0.81957000  0.23554000  0.22339000  1.0
  C  C377  1  0.82784000  0.24335000  0.25234000  1.0
  C  C378  1  0.84627000  0.22486000  0.26726000  1.0
  C  C379  1  0.85622000  0.19849000  0.25305000  1.0
  C  C380  1  0.12988000  0.74390000  0.70191000  1.0
  C  C381  1  0.15454000  0.73077000  0.71458000  1.0
  C  C382  1  0.16204000  0.73740000  0.74389000  1.0
  C  C383  1  0.14592000  0.75873000  0.75998000  1.0
  C  C384  1  0.12350000  0.77407000  0.74659000  1.0
  C  C385  1  0.11358000  0.76439000  0.71858000  1.0
  C  C386  1  0.62305000  0.28195000  0.20938000  1.0
  C  C387  1  0.64820000  0.27278000  0.19431000  1.0
  C  C388  1  0.65476000  0.24231000  0.19145000  1.0
  C  C389  1  0.63513000  0.22102000  0.20279000  1.0
  C  C390  1  0.60739000  0.22958000  0.21331000  1.0
  C  C391  1  0.60201000  0.26020000  0.21786000  1.0
  C  C392  1  0.70447000  0.73587000  0.30541000  1.0
  C  C393  1  0.71119000  0.76362000  0.32124000  1.0
  C  C394  1  0.72058000  0.76439000  0.35016000  1.0
  C  C395  1  0.71893000  0.73789000  0.36424000  1.0
  C  C396  1  0.71087000  0.71033000  0.34880000  1.0
  C  C397  1  0.70622000  0.70920000  0.31903000  1.0
  C  C398  1  0.15900000  0.85435000  0.29817000  1.0
  C  C399  1  0.15745000  0.82325000  0.29071000  1.0
  C  C400  1  0.17863000  0.80501000  0.30239000  1.0
  C  C401  1  0.20237000  0.81833000  0.32027000  1.0
  C  C402  1  0.20311000  0.84912000  0.32910000  1.0
  C  C403  1  0.18253000  0.86733000  0.31658000  1.0
  C  C404  1  0.76044000  0.69256000  0.10892000  1.0
  C  C405  1  0.75500000  0.71967000  0.09709000  1.0
  C  C406  1  0.75440000  0.74650000  0.11472000  1.0
  C  C407  1  0.76075000  0.74639000  0.14428000  1.0
  C  C408  1  0.76746000  0.71953000  0.15609000  1.0
  C  C409  1  0.76568000  0.69239000  0.13863000  1.0
  C  C410  1  0.22442000  0.65616000  0.22988000  1.0
  C  C411  1  0.19661000  0.63961000  0.22674000  1.0
  C  C412  1  0.19424000  0.60980000  0.23410000  1.0
  C  C413  1  0.21948000  0.59686000  0.24562000  1.0
  C  C414  1  0.24778000  0.61255000  0.24716000  1.0
  C  C415  1  0.25005000  0.64249000  0.23992000  1.0
  C  C416  1  0.71548000  0.31025000  0.69001000  1.0
  C  C417  1  0.74498000  0.31864000  0.68292000  1.0
  C  C418  1  0.75833000  0.34600000  0.69465000  1.0
  C  C419  1  0.74000000  0.36846000  0.70536000  1.0
  C  C420  1  0.70873000  0.36270000  0.70510000  1.0
  C  C421  1  0.69685000  0.33295000  0.70005000  1.0
  C  C422  1  0.79173000  0.16085000  0.68570000  1.0
  C  C423  1  0.78783000  0.14159000  0.66043000  1.0
  C  C424  1  0.79081000  0.11050000  0.66135000  1.0
  C  C425  1  0.80120000  0.09942000  0.68687000  1.0
  C  C426  1  0.80910000  0.11935000  0.71084000  1.0
  C  C427  1  0.79997000  0.14880000  0.71127000  1.0
  C  C428  1  0.24588000  0.20366000  0.82907000  1.0
  C  C429  1  0.22073000  0.21315000  0.84404000  1.0
  C  C430  1  0.22344000  0.22189000  0.87346000  1.0
  C  C431  1  0.25138000  0.22091000  0.88795000  1.0
  C  C432  1  0.27718000  0.21400000  0.87278000  1.0
  C  C433  1  0.27439000  0.20518000  0.84323000  1.0
  C  C434  1  0.23843000  0.19530000  0.63560000  1.0
  C  C435  1  0.21243000  0.20357000  0.62127000  1.0
  C  C436  1  0.19439000  0.22516000  0.63420000  1.0
  C  C437  1  0.20498000  0.24231000  0.65922000  1.0
  C  C438  1  0.23259000  0.23620000  0.67241000  1.0
  C  C439  1  0.24902000  0.21236000  0.66071000  1.0
  C  C440  1  0.09436000  0.09972000  0.95363000  1.0
  C  C441  1  0.09829000  0.08905000  0.98053000  1.0
  C  C442  1  0.05794000  0.05122000  0.96966000  1.0
  C  C443  1  0.08032000  0.06502000  0.98844000  1.0
  C  C444  1  0.16058000  0.20436000  0.92029000  1.0
  C  C445  1  0.05433000  0.06166000  0.94265000  1.0
  C  C446  1  0.11874000  0.15093000  0.96478000  1.0
  C  C447  1  0.13452000  0.17617000  0.95657000  1.0
  C  C448  1  0.14476000  0.17694000  0.92888000  1.0
  C  C449  1  0.07228000  0.08558000  0.93476000  1.0
  C  C450  1  0.13875000  0.15186000  0.90952000  1.0
  C  C451  1  0.19598000  0.22998000  0.88993000  1.0
  C  C452  1  0.12294000  0.12665000  0.91772000  1.0
  C  C453  1  0.11258000  0.12593000  0.94539000  1.0
  C  C454  1  0.61101000  0.44300000  0.85387000  1.0
  C  C455  1  0.58399000  0.42631000  0.85611000  1.0
  C  C456  1  0.57276000  0.45677000  0.89871000  1.0
  C  C457  1  0.56512000  0.43309000  0.87829000  1.0
  C  C458  1  0.67051000  0.42131000  0.74831000  1.0
  C  C459  1  0.60005000  0.47308000  0.89702000  1.0
  C  C460  1  0.63291000  0.40784000  0.81723000  1.0
  C  C461  1  0.64714000  0.40244000  0.79164000  1.0
  C  C462  1  0.65869000  0.42623000  0.77715000  1.0
  C  C463  1  0.61902000  0.46626000  0.87477000  1.0
  C  C464  1  0.65648000  0.45545000  0.78933000  1.0
  C  C465  1  0.68829000  0.38833000  0.70907000  1.0
  C  C466  1  0.64217000  0.46085000  0.81487000  1.0
  C  C467  1  0.62962000  0.43713000  0.82880000  1.0
  C  C468  1  0.10138000  0.34873000  0.52443000  1.0
  C  C469  1  0.08264000  0.34548000  0.49987000  1.0
  C  C470  1  0.07341000  0.39820000  0.50486000  1.0
  C  C471  1  0.06876000  0.36995000  0.49023000  1.0
  C  C472  1  0.13935000  0.24703000  0.58097000  1.0
  C  C473  1  0.09345000  0.40185000  0.52841000  1.0
  C  C474  1  0.09338000  0.29661000  0.53826000  1.0
  C  C475  1  0.10260000  0.27232000  0.55200000  1.0
  C  C476  1  0.13114000  0.27280000  0.56519000  1.0
  C  C477  1  0.10731000  0.37736000  0.53811000  1.0
  C  C478  1  0.15068000  0.29795000  0.56333000  1.0
  C  C479  1  0.16241000  0.22706000  0.62311000  1.0
  C  C480  1  0.14138000  0.32239000  0.54958000  1.0
  C  C481  1  0.11248000  0.32211000  0.53714000  1.0
  C  C482  1  0.62592000  0.04500000  0.56589000  1.0
  C  C483  1  0.59719000  0.03824000  0.57561000  1.0
  C  C484  1  0.57697000  0.03226000  0.52702000  1.0
  C  C485  1  0.57286000  0.03194000  0.55629000  1.0
  C  C486  1  0.73213000  0.07815000  0.63581000  1.0
  C  C487  1  0.60556000  0.03926000  0.51747000  1.0
  C  C488  1  0.65054000  0.06865000  0.61160000  1.0
  C  C489  1  0.67637000  0.07680000  0.62849000  1.0
  C  C490  1  0.70435000  0.06814000  0.61945000  1.0
  C  C491  1  0.62958000  0.04578000  0.53659000  1.0
  C  C492  1  0.70594000  0.04981000  0.59426000  1.0
  C  C493  1  0.78707000  0.08999000  0.63409000  1.0
  C  C494  1  0.68027000  0.04129000  0.57771000  1.0
  C  C495  1  0.65235000  0.05131000  0.58567000  1.0
  C  C496  1  0.38615000  0.37487000  0.93930000  1.0
  C  C497  1  0.38734000  0.40146000  0.92555000  1.0
  C  C498  1  0.42744000  0.42232000  0.95802000  1.0
  C  C499  1  0.40763000  0.42512000  0.93504000  1.0
  C  C500  1  0.31891000  0.26937000  0.88879000  1.0
  C  C501  1  0.42518000  0.39668000  0.97273000  1.0
  C  C502  1  0.34064000  0.35026000  0.91209000  1.0
  C  C503  1  0.32464000  0.32476000  0.89962000  1.0
  C  C504  1  0.33522000  0.29640000  0.90245000  1.0
  C  C505  1  0.40443000  0.37346000  0.96382000  1.0
  C  C506  1  0.36224000  0.29398000  0.91750000  1.0
  C  C507  1  0.30727000  0.21454000  0.88885000  1.0
  C  C508  1  0.37847000  0.31935000  0.92944000  1.0
  C  C509  1  0.36791000  0.34792000  0.92710000  1.0
  C  C510  1  0.89426000  0.43432000  0.58865000  1.0
  C  C511  1  0.91268000  0.41527000  0.57312000  1.0
  C  C512  1  0.93088000  0.45611000  0.54671000  1.0
  C  C513  1  0.93087000  0.42606000  0.55245000  1.0
  C  C514  1  0.82893000  0.38608000  0.67919000  1.0
  C  C515  1  0.91226000  0.47514000  0.56208000  1.0
  C  C516  1  0.85954000  0.39533000  0.60654000  1.0
  C  C517  1  0.84355000  0.38368000  0.62833000  1.0
  C  C518  1  0.84350000  0.39934000  0.65522000  1.0
  C  C519  1  0.89424000  0.46437000  0.58294000  1.0
  C  C520  1  0.85936000  0.42706000  0.65973000  1.0
  C  C521  1  0.79203000  0.35028000  0.69730000  1.0
  C  C522  1  0.87514000  0.43883000  0.63787000  1.0
  C  C523  1  0.87573000  0.42288000  0.61118000  1.0
  C  C524  1  0.38889000  0.10201000  0.54368000  1.0
  C  C525  1  0.38749000  0.08973000  0.51530000  1.0
  C  C526  1  0.43403000  0.06570000  0.52226000  1.0
  C  C527  1  0.40995000  0.07217000  0.50466000  1.0
  C  C528  1  0.28213000  0.15398000  0.58519000  1.0
  C  C529  1  0.43580000  0.07793000  0.55048000  1.0
  C  C530  1  0.34568000  0.13507000  0.53774000  1.0
  C  C531  1  0.31974000  0.14752000  0.54774000  1.0
  C  C532  1  0.31181000  0.14536000  0.57590000  1.0
  C  C533  1  0.41374000  0.09625000  0.56097000  1.0
  C  C534  1  0.33062000  0.13125000  0.59415000  1.0
  C  C535  1  0.25132000  0.16541000  0.62706000  1.0
  C  C536  1  0.35608000  0.11801000  0.58398000  1.0
  C  C537  1  0.36371000  0.11913000  0.55541000  1.0
  C  C538  1  0.87196000  0.02327000  0.86072000  1.0
  C  C539  1  0.86731000  0.03355000  0.88898000  1.0
  C  C540  1  0.90662000  0.00340000  0.90543000  1.0
  C  C541  1  0.88443000  0.02366000  0.91112000  1.0
  C  C542  1  0.82180000  0.08942000  0.77280000  1.0
  C  C543  1  0.91014000  0.99178000  0.87744000  1.0
  C  C544  1  0.82799000  0.04634000  0.83815000  1.0
  C  C545  1  0.81597000  0.06252000  0.81691000  1.0
  C  C546  1  0.83323000  0.06997000  0.79401000  1.0
  C  C547  1  0.89287000  0.00151000  0.85531000  1.0
  C  C548  1  0.86264000  0.06079000  0.79275000  1.0
  C  C549  1  0.83611000  0.11368000  0.72960000  1.0
  C  C550  1  0.87459000  0.04472000  0.81384000  1.0
  C  C551  1  0.85760000  0.03754000  0.83698000  1.0
  C  C552  1  0.10308000  0.93801000  0.14468000  1.0
  C  C553  1  0.11833000  0.94098000  0.11940000  1.0
  C  C554  1  0.07304000  0.95563000  0.09585000  1.0
  C  C555  1  0.10339000  0.94954000  0.09515000  1.0
  C  C556  1  0.14990000  0.88942000  0.24504000  1.0
  C  C557  1  0.05799000  0.95315000  0.12114000  1.0
  C  C558  1  0.13945000  0.90588000  0.16828000  1.0
  C  C559  1  0.15093000  0.89415000  0.19264000  1.0
  C  C560  1  0.14078000  0.90361000  0.21941000  1.0
  C  C561  1  0.07268000  0.94421000  0.14509000  1.0
  C  C562  1  0.12041000  0.92606000  0.22175000  1.0
  C  C563  1  0.13233000  0.87241000  0.29117000  1.0
  C  C564  1  0.10950000  0.93824000  0.19764000  1.0
  C  C565  1  0.11804000  0.92767000  0.17044000  1.0
  C  C566  1  0.59846000  0.59406000  0.03598000  1.0
  C  C567  1  0.57026000  0.60407000  0.04329000  1.0
  C  C568  1  0.54534000  0.56223000  0.01488000  1.0
  C  C569  1  0.54405000  0.58856000  0.03254000  1.0
  C  C570  1  0.70562000  0.65393000  0.08927000  1.0
  C  C571  1  0.57323000  0.55225000  0.00718000  1.0
  C  C572  1  0.62769000  0.64067000  0.05678000  1.0
  C  C573  1  0.65335000  0.65496000  0.07017000  1.0
  C  C574  1  0.67870000  0.63901000  0.07486000  1.0
  C  C575  1  0.59948000  0.56823000  0.01722000  1.0
  C  C576  1  0.67809000  0.60858000  0.06623000  1.0
  C  C577  1  0.76141000  0.66398000  0.08943000  1.0
  C  C578  1  0.65218000  0.59404000  0.05363000  1.0
  C  C579  1  0.62650000  0.60984000  0.04866000  1.0
  C  C580  1  0.07388000  0.54539000  0.36503000  1.0
  C  C581  1  0.04949000  0.56049000  0.37555000  1.0
  C  C582  1  0.04510000  0.52749000  0.41356000  1.0
  C  C583  1  0.03536000  0.55175000  0.39960000  1.0
  C  C584  1  0.12437000  0.57204000  0.25848000  1.0
  C  C585  1  0.07015000  0.51296000  0.40356000  1.0
  C  C586  1  0.06851000  0.55652000  0.31430000  1.0
  C  C587  1  0.08072000  0.56293000  0.28858000  1.0
  C  C588  1  0.11175000  0.56664000  0.28624000  1.0
  C  C589  1  0.08450000  0.52194000  0.37959000  1.0
  C  C590  1  0.13040000  0.56354000  0.31011000  1.0
  C  C591  1  0.16484000  0.59131000  0.22976000  1.0
  C  C592  1  0.11819000  0.55669000  0.33577000  1.0
  C  C593  1  0.08711000  0.55317000  0.33811000  1.0
  C  C594  1  0.60946000  0.90267000  0.43186000  1.0
  C  C595  1  0.59379000  0.91911000  0.41292000  1.0
  C  C596  1  0.56309000  0.93842000  0.45096000  1.0
  C  C597  1  0.57089000  0.93685000  0.42238000  1.0
  C  C598  1  0.70940000  0.83588000  0.39349000  1.0
  C  C599  1  0.57832000  0.92142000  0.46975000  1.0
  C  C600  1  0.63272000  0.86760000  0.39609000  1.0
  C  C601  1  0.65678000  0.85141000  0.38679000  1.0
  C  C602  1  0.68340000  0.85229000  0.40337000  1.0
  C  C603  1  0.60129000  0.90381000  0.46031000  1.0
  C  C604  1  0.68549000  0.86984000  0.42930000  1.0
  C  C605  1  0.73114000  0.79380000  0.36625000  1.0
  C  C606  1  0.66138000  0.88587000  0.43868000  1.0
  C  C607  1  0.63475000  0.88499000  0.42214000  1.0
  C  C608  1  0.35813000  0.54224000  0.11291000  1.0
  C  C609  1  0.35679000  0.51358000  0.09873000  1.0
  C  C610  1  0.39508000  0.52908000  0.06699000  1.0
  C  C611  1  0.37522000  0.50702000  0.07602000  1.0
  C  C612  1  0.28713000  0.56739000  0.21124000  1.0
  C  C613  1  0.39582000  0.55792000  0.08065000  1.0
  C  C614  1  0.30967000  0.53929000  0.13780000  1.0
  C  C615  1  0.29267000  0.54557000  0.16156000  1.0
  C  C616  1  0.30555000  0.56154000  0.18607000  1.0
  C  C617  1  0.37761000  0.56441000  0.10345000  1.0
  C  C618  1  0.33598000  0.57077000  0.18634000  1.0
  C  C619  1  0.27588000  0.59732000  0.25565000  1.0
  C  C620  1  0.35290000  0.56468000  0.16250000  1.0
  C  C621  1  0.33992000  0.54890000  0.13800000  1.0
  C  C622  1  0.83944000  0.59469000  0.43220000  1.0
  C  C623  1  0.83540000  0.57045000  0.44882000  1.0
  C  C624  1  0.88906000  0.56654000  0.45372000  1.0
  C  C625  1  0.85991000  0.55649000  0.45936000  1.0
  C  C626  1  0.73393000  0.64367000  0.38483000  1.0
  C  C627  1  0.89329000  0.59155000  0.43820000  1.0
  C  C628  1  0.78891000  0.58896000  0.40770000  1.0
  C  C629  1  0.76363000  0.60082000  0.39617000  1.0
  C  C630  1  0.76199000  0.63168000  0.39529000  1.0
  C  C631  1  0.86870000  0.60551000  0.42751000  1.0
  C  C632  1  0.78640000  0.65051000  0.40603000  1.0
  C  C633  1  0.70561000  0.68247000  0.36441000  1.0
  C  C634  1  0.81175000  0.63860000  0.41772000  1.0
  C  C635  1  0.81313000  0.60768000  0.41899000  1.0
  C  C636  1  0.37182000  0.94535000  0.40464000  1.0
  C  C637  1  0.40120000  0.93736000  0.39947000  1.0
  C  C638  1  0.41979000  0.96898000  0.44098000  1.0
  C  C639  1  0.42505000  0.94929000  0.41738000  1.0
  C  C640  1  0.27055000  0.87887000  0.34675000  1.0
  C  C641  1  0.39089000  0.97833000  0.44516000  1.0
  C  C642  1  0.34672000  0.91956000  0.35984000  1.0
  C  C643  1  0.32224000  0.90335000  0.34589000  1.0
  C  C644  1  0.29620000  0.89713000  0.36053000  1.0
  C  C645  1  0.36725000  0.96700000  0.42698000  1.0
  C  C646  1  0.29530000  0.90688000  0.38938000  1.0
  C  C647  1  0.21914000  0.86042000  0.35709000  1.0
  C  C648  1  0.31966000  0.92265000  0.40331000  1.0
  C  C649  1  0.34570000  0.92940000  0.38880000  1.0
  C  C650  1  0.88757000  0.86686000  0.04241000  1.0
  C  C651  1  0.91292000  0.87682000  0.05941000  1.0
  C  C652  1  0.92995000  0.90873000  0.02350000  1.0
  C  C653  1  0.93385000  0.89743000  0.05007000  1.0
  C  C654  1  0.79969000  0.79287000  0.09464000  1.0
  C  C655  1  0.90484000  0.89851000  0.00626000  1.0
  C  C656  1  0.87342000  0.82270000  0.06908000  1.0
  C  C657  1  0.85212000  0.80492000  0.08170000  1.0
  C  C658  1  0.82161000  0.80975000  0.07849000  1.0
  C  C659  1  0.88385000  0.87782000  0.01563000  1.0
  C  C660  1  0.81278000  0.83237000  0.06183000  1.0
  C  C661  1  0.74695000  0.77513000  0.10163000  1.0
  C  C662  1  0.83413000  0.85027000  0.04929000  1.0
  C  C663  1  0.86474000  0.84599000  0.05322000  1.0
  C  C664  1  0.94840000  0.08396000  0.09783000  1.0
  C  C665  1  0.95217000  0.09537000  0.07132000  1.0
  C  C666  1  0.96669000  0.04725000  0.05085000  1.0
  C  C667  1  0.96128000  0.07728000  0.04818000  1.0
  C  C668  1  0.88849000  0.15792000  0.18195000  1.0
  C  C669  1  0.96413000  0.03602000  0.07750000  1.0
  C  C670  1  0.94266000  0.13337000  0.12573000  1.0
  C  C671  1  0.92812000  0.15118000  0.14601000  1.0
  C  C672  1  0.90648000  0.13856000  0.16293000  1.0
  C  C673  1  0.95509000  0.05418000  0.10076000  1.0
  C  C674  1  0.90010000  0.10760000  0.15937000  1.0
  C  C675  1  0.84630000  0.15582000  0.21507000  1.0
  C  C676  1  0.91450000  0.08985000  0.13903000  1.0
  C  C677  1  0.93563000  0.10252000  0.12158000  1.0
  C  C678  1  0.54450000  0.41004000  0.09588000  1.0
  C  C679  1  0.56094000  0.41342000  0.07143000  1.0
  C  C680  1  0.52139000  0.44087000  0.05099000  1.0
  C  C681  1  0.54955000  0.42868000  0.04927000  1.0
  C  C682  1  0.59776000  0.35631000  0.19127000  1.0
  C  C683  1  0.50470000  0.43693000  0.07518000  1.0
  C  C684  1  0.57345000  0.36957000  0.11573000  1.0
  C  C685  1  0.58618000  0.35641000  0.13868000  1.0
  C  C686  1  0.58307000  0.36876000  0.16662000  1.0
  C  C687  1  0.51612000  0.42175000  0.09735000  1.0
  C  C688  1  0.56687000  0.39443000  0.17102000  1.0
  C  C689  1  0.61828000  0.31499000  0.21537000  1.0
  C  C690  1  0.55404000  0.40746000  0.14814000  1.0
  C  C691  1  0.55729000  0.39531000  0.12019000  1.0
  C  C692  1  0.03747000  0.59840000  0.58754000  1.0
  C  C693  1  0.03881000  0.56913000  0.59549000  1.0
  C  C694  1  0.01984000  0.54884000  0.54876000  1.0
  C  C695  1  0.02992000  0.54479000  0.57648000  1.0
  C  C696  1  0.09408000  0.69178000  0.66579000  1.0
  C  C697  1  0.01784000  0.57795000  0.54074000  1.0
  C  C698  1  0.04672000  0.62323000  0.63712000  1.0
  C  C699  1  0.06060000  0.64562000  0.65598000  1.0
  C  C700  1  0.07648000  0.66993000  0.64583000  1.0
  C  C701  1  0.02644000  0.60248000  0.55997000  1.0
  C  C702  1  0.07774000  0.67162000  0.61637000  1.0
  C  C703  1  0.12401000  0.74041000  0.66978000  1.0
  C  C704  1  0.06428000  0.64899000  0.59749000  1.0
  C  C705  1  0.04900000  0.62415000  0.60756000  1.0
  C  C706  1  0.53282000  0.11999000  0.35101000  1.0
  C  C707  1  0.52648000  0.13169000  0.37847000  1.0
  C  C708  1  0.51849000  0.08169000  0.39357000  1.0
  C  C709  1  0.51959000  0.11273000  0.39959000  1.0
  C  C710  1  0.55318000  0.19216000  0.25720000  1.0
  C  C711  1  0.52446000  0.06997000  0.36607000  1.0
  C  C712  1  0.52237000  0.16430000  0.32428000  1.0
  C  C713  1  0.52753000  0.18183000  0.30172000  1.0
  C  C714  1  0.55063000  0.17584000  0.28306000  1.0
  C  C715  1  0.53170000  0.08892000  0.34505000  1.0
  C  C716  1  0.56886000  0.15222000  0.28779000  1.0
  C  C717  1  0.58216000  0.20617000  0.21604000  1.0
  C  C718  1  0.56345000  0.13443000  0.31016000  1.0
  C  C719  1  0.53989000  0.14004000  0.32842000  1.0
  C  C720  1  0.03257000  0.87907000  0.88935000  1.0
  C  C721  1  0.03363000  0.86636000  0.91550000  1.0
  C  C722  1  0.02179000  0.91345000  0.94041000  1.0
  C  C723  1  0.02820000  0.88334000  0.94074000  1.0
  C  C724  1  0.07247000  0.82643000  0.78269000  1.0
  C  C725  1  0.02011000  0.92601000  0.91429000  1.0
  C  C726  1  0.06449000  0.84328000  0.86197000  1.0
  C  C727  1  0.07397000  0.83004000  0.83622000  1.0
  C  C728  1  0.05929000  0.83494000  0.81046000  1.0
  C  C729  1  0.02542000  0.90905000  0.88909000  1.0
  C  C730  1  0.03406000  0.85212000  0.81128000  1.0
  C  C731  1  0.11553000  0.80466000  0.75929000  1.0
  C  C732  1  0.02458000  0.86530000  0.83697000  1.0
  C  C733  1  0.04019000  0.86179000  0.86257000  1.0
  C  C734  1  0.94005000  0.37212000  0.38569000  1.0
  C  C735  1  0.94234000  0.39909000  0.37273000  1.0
  C  C736  1  0.95650000  0.42641000  0.41808000  1.0
  C  C737  1  0.95046000  0.42592000  0.38876000  1.0
  C  C738  1  0.88967000  0.26012000  0.33152000  1.0
  C  C739  1  0.95503000  0.39947000  0.43094000  1.0
  C  C740  1  0.90635000  0.34324000  0.34827000  1.0
  C  C741  1  0.89437000  0.31624000  0.33481000  1.0
  C  C742  1  0.90516000  0.28905000  0.34197000  1.0
  C  C743  1  0.94681000  0.37268000  0.41498000  1.0
  C  C744  1  0.92895000  0.28958000  0.36202000  1.0
  C  C745  1  0.85245000  0.23151000  0.29909000  1.0
  C  C746  1  0.94106000  0.31652000  0.37531000  1.0
  C  C747  1  0.92943000  0.34370000  0.36916000  1.0
  C  C748  1  0.45374000  0.86400000  0.59992000  1.0
  C  C749  1  0.46651000  0.85819000  0.57343000  1.0
  C  C750  1  0.47280000  0.91118000  0.56762000  1.0
  C  C751  1  0.47582000  0.88143000  0.55749000  1.0
  C  C752  1  0.41132000  0.76187000  0.65769000  1.0
  C  C753  1  0.46115000  0.91724000  0.59458000  1.0
  C  C754  1  0.42615000  0.81427000  0.60060000  1.0
  C  C755  1  0.41602000  0.78982000  0.61457000  1.0
  C  C756  1  0.42089000  0.78919000  0.64396000  1.0
  C  C757  1  0.45174000  0.89385000  0.61061000  1.0
  C  C758  1  0.43593000  0.81398000  0.65914000  1.0
  C  C759  1  0.39416000  0.73552000  0.69853000  1.0
  C  C760  1  0.44614000  0.83857000  0.64507000  1.0
  C  C761  1  0.44173000  0.83881000  0.61554000  1.0
  C  C762  1  0.43954000  0.60264000  0.88491000  1.0
  C  C763  1  0.42014000  0.59456000  0.90611000  1.0
  C  C764  1  0.45311000  0.55635000  0.91949000  1.0
  C  C765  1  0.42684000  0.57170000  0.92318000  1.0
  C  C766  1  0.42074000  0.71270000  0.83313000  1.0
  C  C767  1  0.47181000  0.56353000  0.89748000  1.0
  C  C768  1  0.40554000  0.63626000  0.86030000  1.0
  C  C769  1  0.40088000  0.66273000  0.84757000  1.0
  C  C770  1  0.42503000  0.68292000  0.84352000  1.0
  C  C771  1  0.46509000  0.58634000  0.88040000  1.0
  C  C772  1  0.45389000  0.67561000  0.85178000  1.0
  C  C773  1  0.39280000  0.74795000  0.80668000  1.0
  C  C774  1  0.45855000  0.64922000  0.86432000  1.0
  C  C775  1  0.43443000  0.62936000  0.86915000  1.0
  C  C776  1  0.18879000  0.72332000  0.75709000  1.0
  C  C777  1  0.24223000  0.71858000  0.74903000  1.0
  C  C778  1  0.22446000  0.76612000  0.76677000  1.0
  C  C779  1  0.30513000  0.77865000  0.74784000  1.0
  C  C780  1  0.25269000  0.78190000  0.75682000  1.0
  C  C781  1  0.27037000  0.73447000  0.73849000  1.0
  C  C782  1  0.68033000  0.23242000  0.17306000  1.0
  C  C783  1  0.73147000  0.24484000  0.16142000  1.0
  C  C784  1  0.72095000  0.23110000  0.20883000  1.0
  C  C785  1  0.80304000  0.25686000  0.20593000  1.0
  C  C786  1  0.75146000  0.24551000  0.21963000  1.0
  C  C787  1  0.76132000  0.25979000  0.17242000  1.0
  C  C788  1  0.77834000  0.72052000  0.18703000  1.0
  C  C789  1  0.76703000  0.73764000  0.23536000  1.0
  C  C790  1  0.73119000  0.70443000  0.20754000  1.0
  C  C791  1  0.69436000  0.73422000  0.27425000  1.0
  C  C792  1  0.70632000  0.71489000  0.22676000  1.0
  C  C793  1  0.74233000  0.74832000  0.25458000  1.0
  C  C794  1  0.22615000  0.68866000  0.22283000  1.0
  C  C795  1  0.20641000  0.73759000  0.23320000  1.0
  C  C796  1  0.21966000  0.70877000  0.27203000  1.0
  C  C797  1  0.17305000  0.77128000  0.30068000  1.0
  C  C798  1  0.19783000  0.72523000  0.29088000  1.0
  C  C799  1  0.18510000  0.75511000  0.25203000  1.0
  C  C800  1  0.70351000  0.27775000  0.68714000  1.0
  C  C801  1  0.71657000  0.22604000  0.67598000  1.0
  C  C802  1  0.74382000  0.25535000  0.71359000  1.0
  C  C803  1  0.79323000  0.19462000  0.68504000  1.0
  C  C804  1  0.77196000  0.23840000  0.70796000  1.0
  C  C805  1  0.74358000  0.20762000  0.66949000  1.0
  C  C806  1  0.24391000  0.25355000  0.70006000  1.0
  C  C807  1  0.21589000  0.22116000  0.73069000  1.0
  C  C808  1  0.26019000  0.24962000  0.74923000  1.0
  C  C809  1  0.24129000  0.18953000  0.79874000  1.0
  C  C810  1  0.26488000  0.22748000  0.77157000  1.0
  C  C811  1  0.22036000  0.19831000  0.75238000  1.0
  I  I812  1  0.32076000  0.76329000  0.81333000  1.0
  I  I813  1  0.43766000  0.72844000  0.75611000  1.0
  I  I814  1  0.32717000  0.75577000  0.68295000  1.0
  I  I815  1  0.81185000  0.28289000  0.27436000  1.0
  I  I816  1  0.88915000  0.17309000  0.27272000  1.0
  I  I817  1  0.81298000  0.19483000  0.16685000  1.0
  I  I818  1  0.15464000  0.76850000  0.80489000  1.0
  I  I819  1  0.07348000  0.78116000  0.70152000  1.0
  I  I820  1  0.18100000  0.70062000  0.68947000  1.0
  I  I821  1  0.64740000  0.17585000  0.20550000  1.0
  I  I822  1  0.56129000  0.27340000  0.23694000  1.0
  I  I823  1  0.67517000  0.30524000  0.17402000  1.0
  I  I824  1  0.72789000  0.73935000  0.40937000  1.0
  I  I825  1  0.70298000  0.66690000  0.29418000  1.0
  I  I826  1  0.70649000  0.80503000  0.30217000  1.0
  I  I827  1  0.23715000  0.79118000  0.33429000  1.0
  I  I828  1  0.18717000  0.91489000  0.32610000  1.0
  I  I829  1  0.12232000  0.80413000  0.26168000  1.0
  I  I830  1  0.76080000  0.78706000  0.17185000  1.0
  I  I831  1  0.76838000  0.65062000  0.15761000  1.0
  I  I832  1  0.74714000  0.71993000  0.05194000  1.0
  I  I833  1  0.21344000  0.55403000  0.26278000  1.0
  I  I834  1  0.29238000  0.66759000  0.24627000  1.0
  I  I835  1  0.15751000  0.66075000  0.21228000  1.0
  I  I836  1  0.75946000  0.41135000  0.72128000  1.0
  I  I837  1  0.65040000  0.32259000  0.70663000  1.0
  I  I838  1  0.76743000  0.29430000  0.64982000  1.0
  I  I839  1  0.80451000  0.05244000  0.69006000  1.0
  I  I840  1  0.79945000  0.17530000  0.75104000  1.0
  I  I841  1  0.77897000  0.15900000  0.62010000  1.0
  I  I842  1  0.25422000  0.22734000  0.93367000  1.0
  I  I843  1  0.31333000  0.19352000  0.81986000  1.0
  I  I844  1  0.17773000  0.21240000  0.82218000  1.0
  I  I845  1  0.17871000  0.27777000  0.67638000  1.0
  I  I846  1  0.29032000  0.20205000  0.68123000  1.0
  I  I847  1  0.20080000  0.18466000  0.57896000  1.0
  N  N848  1  0.18134000  0.20312000  0.89994000  1.0
  N  N849  1  0.68220000  0.39519000  0.73905000  1.0
  N  N850  1  0.16006000  0.24986000  0.60286000  1.0
  N  N851  1  0.75650000  0.08789000  0.62207000  1.0
  N  N852  1  0.31655000  0.24405000  0.90253000  1.0
  N  N853  1  0.80365000  0.36803000  0.67510000  1.0
  N  N854  1  0.27881000  0.16832000  0.61122000  1.0
  N  N855  1  0.83254000  0.08791000  0.74624000  1.0
  N  N856  1  0.12858000  0.87732000  0.26109000  1.0
  N  N857  1  0.73225000  0.65357000  0.07627000  1.0
  N  N858  1  0.14994000  0.58920000  0.25672000  1.0
  N  N859  1  0.70569000  0.80946000  0.37749000  1.0
  N  N860  1  0.29388000  0.59079000  0.23080000  1.0
  N  N861  1  0.73379000  0.66965000  0.37217000  1.0
  N  N862  1  0.24238000  0.88403000  0.35485000  1.0
  N  N863  1  0.77115000  0.78642000  0.08454000  1.0
  N  N864  1  0.87555000  0.14735000  0.20501000  1.0
  N  N865  1  0.60289000  0.32685000  0.19126000  1.0
  N  N866  1  0.09777000  0.72086000  0.66036000  1.0
  N  N867  1  0.57997000  0.19761000  0.24522000  1.0
  N  N868  1  0.09100000  0.80353000  0.77912000  1.0
  N  N869  1  0.87520000  0.25597000  0.30564000  1.0
  N  N870  1  0.40369000  0.76271000  0.68536000  1.0
  N  N871  1  0.39798000  0.71778000  0.81468000  1.0
  N  N872  1  0.27798000  0.76219000  0.75658000  1.0
  N  N873  1  0.21701000  0.73831000  0.74878000  1.0
  N  N874  1  0.77283000  0.24452000  0.19650000  1.0
  N  N875  1  0.70966000  0.24574000  0.18414000  1.0
  N  N876  1  0.71850000  0.72463000  0.25557000  1.0
  N  N877  1  0.75449000  0.72856000  0.20661000  1.0
  N  N878  1  0.19443000  0.75569000  0.28231000  1.0
  N  N879  1  0.20842000  0.70729000  0.24237000  1.0
  N  N880  1  0.76509000  0.20802000  0.69401000  1.0
  N  N881  1  0.72729000  0.25637000  0.68644000  1.0
  N  N882  1  0.23634000  0.21218000  0.77834000  1.0
  N  N883  1  0.24529000  0.23408000  0.72364000  1.0
  O  O884  1  0.97466000  0.94065000  0.03144000  1.0
  O  O885  1  0.97376000  0.99867000  0.02496000  1.0
  O  O886  1  0.94718000  0.94277000  0.98975000  1.0
  O  O887  1  0.97119000  0.03647000  0.99999000  1.0
  O  O888  1  0.02873000  0.97082000  0.07090000  1.0
  O  O889  1  0.06550000  0.95966000  0.04448000  1.0
  O  O890  1  0.01566000  0.01623000  0.96053000  1.0
  O  O891  1  0.01656000  0.96086000  0.96858000  1.0
  O  O892  1  0.04154000  0.01664000  0.00355000  1.0
  O  O893  1  0.02103000  0.92243000  0.99222000  1.0
  O  O894  1  0.95128000  0.98152000  0.92438000  1.0
  O  O895  1  0.92542000  0.00659000  0.95463000  1.0
  O  O896  1  0.52613000  0.46227000  0.00588000  1.0
  O  O897  1  0.51621000  0.51535000  0.00484000  1.0
  O  O898  1  0.48340000  0.46973000  0.03064000  1.0
  O  O899  1  0.49152000  0.55513000  0.00667000  1.0
  O  O900  1  0.55585000  0.48715000  0.94007000  1.0
  O  O901  1  0.52559000  0.45118000  0.92255000  1.0
  O  O902  1  0.44415000  0.52829000  0.96020000  1.0
  O  O903  1  0.45304000  0.47223000  0.96197000  1.0
  O  O904  1  0.48846000  0.52310000  0.93771000  1.0
  O  O905  1  0.48007000  0.43437000  0.96642000  1.0
  O  O906  1  0.41942000  0.49528000  0.03267000  1.0
  O  O907  1  0.43507000  0.54145000  0.03541000  1.0
  O  O908  1  0.00491000  0.53123000  0.44590000  1.0
  O  O909  1  0.00974000  0.52327000  0.50091000  1.0
  O  O910  1  0.03427000  0.49096000  0.44728000  1.0
  O  O911  1  0.01638000  0.49563000  0.53564000  1.0
  O  O912  1  0.94239000  0.55688000  0.45796000  1.0
  O  O913  1  0.91153000  0.52326000  0.47164000  1.0
  O  O914  1  0.97034000  0.45024000  0.51350000  1.0
  O  O915  1  0.96617000  0.45703000  0.46292000  1.0
  O  O916  1  0.94710000  0.49445000  0.51684000  1.0
  O  O917  1  0.95982000  0.48080000  0.42592000  1.0
  O  O918  1  0.03326000  0.42013000  0.47864000  1.0
  O  O919  1  0.05681000  0.44913000  0.51124000  1.0
  O  O920  1  0.46865000  0.02724000  0.52810000  1.0
  O  O921  1  0.52381000  0.02480000  0.51156000  1.0
  O  O922  1  0.46217000  0.04422000  0.48395000  1.0
  O  O923  1  0.55647000  0.02538000  0.47890000  1.0
  O  O924  1  0.47905000  0.96366000  0.55611000  1.0
  O  O925  1  0.48606000  0.93000000  0.52247000  1.0
  O  O926  1  0.52809000  0.97641000  0.44414000  1.0
  O  O927  1  0.47183000  0.97705000  0.45875000  1.0
  O  O928  1  0.53304000  0.95935000  0.48832000  1.0
  O  O929  1  0.43765000  0.97970000  0.48965000  1.0
  O  O930  1  0.50879000  0.03279000  0.41185000  1.0
  O  O931  1  0.51148000  0.07057000  0.44290000  1.0
  O  O932  1  0.15467000  0.23023000  0.93317000  1.0
  O  O933  1  0.66851000  0.44260000  0.73102000  1.0
  O  O934  1  0.12411000  0.22143000  0.57502000  1.0
  O  O935  1  0.73329000  0.07659000  0.66342000  1.0
  O  O936  1  0.30763000  0.26989000  0.86289000  1.0
  O  O937  1  0.84117000  0.39176000  0.70481000  1.0
  O  O938  1  0.25863000  0.14414000  0.56924000  1.0
  O  O939  1  0.80389000  0.11037000  0.78084000  1.0
  O  O940  1  0.17831000  0.88995000  0.25275000  1.0
  O  O941  1  0.70322000  0.66773000  0.11456000  1.0
  O  O942  1  0.11052000  0.55970000  0.23520000  1.0
  O  O943  1  0.73648000  0.84699000  0.40090000  1.0
  O  O944  1  0.26341000  0.54970000  0.21414000  1.0
  O  O945  1  0.70855000  0.62847000  0.38794000  1.0
  O  O946  1  0.27551000  0.85571000  0.32922000  1.0
  O  O947  1  0.80835000  0.78450000  0.11939000  1.0
  O  O948  1  0.88382000  0.18502000  0.17530000  1.0
  O  O949  1  0.60554000  0.37439000  0.21382000  1.0
  O  O950  1  0.10736000  0.68222000  0.68817000  1.0
  O  O951  1  0.52847000  0.20036000  0.24511000  1.0
  O  O952  1  0.06847000  0.84377000  0.76200000  1.0
  O  O953  1  0.88862000  0.23863000  0.34871000  1.0
  O  O954  1  0.40926000  0.73629000  0.64207000  1.0
  O  O955  1  0.43997000  0.73474000  0.84215000  1.0
